{
   "completed_at" : "20170720T125500Z",
   "completed_status" : "Success",
   "created_at" : "2017-07-20 12:53:38 +0000",
   "current_step" : 11,
   "description" : "",
   "eplusout_err" : "Program Version,EnergyPlus, Version 8.7.0-78a111df4a, YMD=2017.07.20 12:54,IDD_Version 8.7.0\n   ************* IDF Context for following error/warning message:\n   ************* Note -- lines truncated at 300 characters, if necessary...\n   *************      5 Building,\n   ************* indicated Name=NECB 2011-FullServiceRestaurant-NECB HDD Method-CAN_ON_Ottawa.716280_CWEC.epw created: 2017-07-20 12:53:43 +0000\n   ************* Only last 1 lines before error line shown.....\n   *************      6   NECB 2011-FullServiceRestaurant-NECB HDD Method-CAN_ON_Ottawa.716280_CWEC.epw created: 2017-07-20 12:53:43 +0000, !- Name\n   ** Warning ** IP: IDF line~6 Alpha Argument length exceeds maximum, will be truncated=  NECB 2011-FullServiceRestaurant-NECB HDD Method-CAN_ON_Ottawa.716280_CWEC.epw created: 2017-07-20 12:53:43 +000\n   **   ~~~   ** Will be processed as Alpha=NECB 2011-FULLSERVICERESTAURANT-NECB HDD METHOD-CAN_ON_OTTAWA.716280_CWEC.EPW CREATED: 2017-07-20 12:53:43 +0000\n   ************* IDF Context for following error/warning message:\n   ************* Note -- lines truncated at 300 characters, if necessary...\n   *************     62 BuildingSurface:Detailed,\n   ************* indicated Name=east-roof\n   ************* Only last 3 lines before error line shown.....\n   *************     63   east-roof,                              !- Name\n   *************     64   Roof,                                   !- Surface Type\n   *************     65   Customized opaque construction {a94bb6ae-99f2-4012-af9f-04788ae3e19f} to conductance of 0.183 adj roof insulation, !- Construction Name\n   ** Warning ** IP: IDF line~65 Alpha Argument length exceeds maximum, will be truncated=  Customized opaque construction {a94bb6ae-99f2-4012-af9f-04788ae3e19f} to conductance of 0.183 adj roof insulatio\n   **   ~~~   ** Will be processed as Alpha=CUSTOMIZED OPAQUE CONSTRUCTION {A94BB6AE-99F2-4012-AF9F-04788AE3E19F} TO CONDUCTANCE OF 0.183 ADJ ROOF INSULATION\n   ************* IDF Context for following error/warning message:\n   ************* Note -- lines truncated at 300 characters, if necessary...\n   *************     78 BuildingSurface:Detailed,\n   ************* indicated Name=north-roof\n   ************* Only last 3 lines before error line shown.....\n   *************     79   north-roof,                             !- Name\n   *************     80   Roof,                                   !- Surface Type\n   *************     81   Customized opaque construction {a94bb6ae-99f2-4012-af9f-04788ae3e19f} to conductance of 0.183 adj roof insulation, !- Construction Name\n   ** Warning ** IP: IDF line~81 Alpha Argument length exceeds maximum, will be truncated=  Customized opaque construction {a94bb6ae-99f2-4012-af9f-04788ae3e19f} to conductance of 0.183 adj roof insulatio\n   **   ~~~   ** Will be processed as Alpha=CUSTOMIZED OPAQUE CONSTRUCTION {A94BB6AE-99F2-4012-AF9F-04788AE3E19F} TO CONDUCTANCE OF 0.183 ADJ ROOF INSULATION\n   ************* IDF Context for following error/warning message:\n   ************* Note -- lines truncated at 300 characters, if necessary...\n   *************     93 BuildingSurface:Detailed,\n   ************* indicated Name=south-roof\n   ************* Only last 3 lines before error line shown.....\n   *************     94   south-roof,                             !- Name\n   *************     95   Roof,                                   !- Surface Type\n   *************     96   Customized opaque construction {a94bb6ae-99f2-4012-af9f-04788ae3e19f} to conductance of 0.183 adj roof insulation, !- Construction Name\n   ** Warning ** IP: IDF line~96 Alpha Argument length exceeds maximum, will be truncated=  Customized opaque construction {a94bb6ae-99f2-4012-af9f-04788ae3e19f} to conductance of 0.183 adj roof insulatio\n   **   ~~~   ** Will be processed as Alpha=CUSTOMIZED OPAQUE CONSTRUCTION {A94BB6AE-99F2-4012-AF9F-04788AE3E19F} TO CONDUCTANCE OF 0.183 ADJ ROOF INSULATION\n   ************* IDF Context for following error/warning message:\n   ************* Note -- lines truncated at 300 characters, if necessary...\n   *************    108 BuildingSurface:Detailed,\n   ************* indicated Name=west-roof\n   ************* Only last 3 lines before error line shown.....\n   *************    109   west-roof,                              !- Name\n   *************    110   Roof,                                   !- Surface Type\n   *************    111   Customized opaque construction {a94bb6ae-99f2-4012-af9f-04788ae3e19f} to conductance of 0.183 adj roof insulation, !- Construction Name\n   ** Warning ** IP: IDF line~111 Alpha Argument length exceeds maximum, will be truncated=  Customized opaque construction {a94bb6ae-99f2-4012-af9f-04788ae3e19f} to conductance of 0.183 adj roof insulatio\n   **   ~~~   ** Will be processed as Alpha=CUSTOMIZED OPAQUE CONSTRUCTION {A94BB6AE-99F2-4012-AF9F-04788AE3E19F} TO CONDUCTANCE OF 0.183 ADJ ROOF INSULATION\n   ************* IDF Context for following error/warning message:\n   ************* Note -- lines truncated at 300 characters, if necessary...\n   *************    185 BuildingSurface:Detailed,\n   ************* indicated Name=Dining_Wall_East\n   ************* Only last 3 lines before error line shown.....\n   *************    186   Dining_Wall_East,                       !- Name\n   *************    187   Wall,                                   !- Surface Type\n   *************    188   Customized opaque construction {93f37ce3-6a24-498e-b585-1fd46bd9b337} to conductance of 0.247 adj exterior wall insulation, !- Construction Name\n   ** Warning ** IP: IDF line~188 Alpha Argument length exceeds maximum, will be truncated=  Customized opaque construction {93f37ce3-6a24-498e-b585-1fd46bd9b337} to conductance of 0.247 adj exterior wall insulatio\n   **   ~~~   ** Will be processed as Alpha=CUSTOMIZED OPAQUE CONSTRUCTION {93F37CE3-6A24-498E-B585-1FD46BD9B337} TO CONDUCTANCE OF 0.247 ADJ EXTERIOR WALL INSULATION\n   ************* IDF Context for following error/warning message:\n   ************* Note -- lines truncated at 300 characters, if necessary...\n   *************    233 BuildingSurface:Detailed,\n   ************* indicated Name=Dining_Wall_South\n   ************* Only last 3 lines before error line shown.....\n   *************    234   Dining_Wall_South,                      !- Name\n   *************    235   Wall,                                   !- Surface Type\n   *************    236   Customized opaque construction {93f37ce3-6a24-498e-b585-1fd46bd9b337} to conductance of 0.247 adj exterior wall insulation, !- Construction Name\n   ** Warning ** IP: IDF line~236 Alpha Argument length exceeds maximum, will be truncated=  Customized opaque construction {93f37ce3-6a24-498e-b585-1fd46bd9b337} to conductance of 0.247 adj exterior wall insulatio\n   **   ~~~   ** Will be processed as Alpha=CUSTOMIZED OPAQUE CONSTRUCTION {93F37CE3-6A24-498E-B585-1FD46BD9B337} TO CONDUCTANCE OF 0.247 ADJ EXTERIOR WALL INSULATION\n   ************* IDF Context for following error/warning message:\n   ************* Note -- lines truncated at 300 characters, if necessary...\n   *************    265 BuildingSurface:Detailed,\n   ************* indicated Name=Dining_Wall_West\n   ************* Only last 3 lines before error line shown.....\n   *************    266   Dining_Wall_West,                       !- Name\n   *************    267   Wall,                                   !- Surface Type\n   *************    268   Customized opaque construction {93f37ce3-6a24-498e-b585-1fd46bd9b337} to conductance of 0.247 adj exterior wall insulation, !- Construction Name\n   ** Warning ** IP: IDF line~268 Alpha Argument length exceeds maximum, will be truncated=  Customized opaque construction {93f37ce3-6a24-498e-b585-1fd46bd9b337} to conductance of 0.247 adj exterior wall insulatio\n   **   ~~~   ** Will be processed as Alpha=CUSTOMIZED OPAQUE CONSTRUCTION {93F37CE3-6A24-498E-B585-1FD46BD9B337} TO CONDUCTANCE OF 0.247 ADJ EXTERIOR WALL INSULATION\n   ************* IDF Context for following error/warning message:\n   ************* Note -- lines truncated at 300 characters, if necessary...\n   *************    783 BuildingSurface:Detailed,\n   ************* indicated Name=Kitchen_Wall_East\n   ************* Only last 3 lines before error line shown.....\n   *************    784   Kitchen_Wall_East,                      !- Name\n   *************    785   Wall,                                   !- Surface Type\n   *************    786   Customized opaque construction {93f37ce3-6a24-498e-b585-1fd46bd9b337} to conductance of 0.247 adj exterior wall insulation, !- Construction Name\n   ** Warning ** IP: IDF line~786 Alpha Argument length exceeds maximum, will be truncated=  Customized opaque construction {93f37ce3-6a24-498e-b585-1fd46bd9b337} to conductance of 0.247 adj exterior wall insulatio\n   **   ~~~   ** Will be processed as Alpha=CUSTOMIZED OPAQUE CONSTRUCTION {93F37CE3-6A24-498E-B585-1FD46BD9B337} TO CONDUCTANCE OF 0.247 ADJ EXTERIOR WALL INSULATION\n   ************* IDF Context for following error/warning message:\n   ************* Note -- lines truncated at 300 characters, if necessary...\n   *************    799 BuildingSurface:Detailed,\n   ************* indicated Name=Kitchen_Wall_North\n   ************* Only last 3 lines before error line shown.....\n   *************    800   Kitchen_Wall_North,                     !- Name\n   *************    801   Wall,                                   !- Surface Type\n   *************    802   Customized opaque construction {93f37ce3-6a24-498e-b585-1fd46bd9b337} to conductance of 0.247 adj exterior wall insulation, !- Construction Name\n   ** Warning ** IP: IDF line~802 Alpha Argument length exceeds maximum, will be truncated=  Customized opaque construction {93f37ce3-6a24-498e-b585-1fd46bd9b337} to conductance of 0.247 adj exterior wall insulatio\n   **   ~~~   ** Will be processed as Alpha=CUSTOMIZED OPAQUE CONSTRUCTION {93F37CE3-6A24-498E-B585-1FD46BD9B337} TO CONDUCTANCE OF 0.247 ADJ EXTERIOR WALL INSULATION\n   ************* IDF Context for following error/warning message:\n   ************* Note -- lines truncated at 300 characters, if necessary...\n   *************    815 BuildingSurface:Detailed,\n   ************* indicated Name=Kitchen_Wall_West\n   ************* Only last 3 lines before error line shown.....\n   *************    816   Kitchen_Wall_West,                      !- Name\n   *************    817   Wall,                                   !- Surface Type\n   *************    818   Customized opaque construction {93f37ce3-6a24-498e-b585-1fd46bd9b337} to conductance of 0.247 adj exterior wall insulation, !- Construction Name\n   ** Warning ** IP: IDF line~818 Alpha Argument length exceeds maximum, will be truncated=  Customized opaque construction {93f37ce3-6a24-498e-b585-1fd46bd9b337} to conductance of 0.247 adj exterior wall insulatio\n   **   ~~~   ** Will be processed as Alpha=CUSTOMIZED OPAQUE CONSTRUCTION {93F37CE3-6A24-498E-B585-1FD46BD9B337} TO CONDUCTANCE OF 0.247 ADJ EXTERIOR WALL INSULATION\n   ************* IDF Context for following error/warning message:\n   ************* Note -- lines truncated at 300 characters, if necessary...\n   *************   1557 Construction,\n   ************* indicated Name=Customized opaque construction {93f37ce3-6a24-498e-b585-1fd46bd9b337} to conductance of 0.247 adj exterior wall insulation\n   ************* Only last 1 lines before error line shown.....\n   *************   1558   Customized opaque construction {93f37ce3-6a24-498e-b585-1fd46bd9b337} to conductance of 0.247 adj exterior wall insulation, !- Name\n   ** Warning ** IP: IDF line~1558 Alpha Argument length exceeds maximum, will be truncated=  Customized opaque construction {93f37ce3-6a24-498e-b585-1fd46bd9b337} to conductance of 0.247 adj exterior wall insulatio\n   **   ~~~   ** Will be processed as Alpha=CUSTOMIZED OPAQUE CONSTRUCTION {93F37CE3-6A24-498E-B585-1FD46BD9B337} TO CONDUCTANCE OF 0.247 ADJ EXTERIOR WALL INSULATION\n   ************* IDF Context for following error/warning message:\n   ************* Note -- lines truncated at 300 characters, if necessary...\n   *************   1569 Construction,\n   ************* indicated Name=Customized opaque construction {a94bb6ae-99f2-4012-af9f-04788ae3e19f} to conductance of 0.183 adj roof insulation\n   ************* Only last 1 lines before error line shown.....\n   *************   1570   Customized opaque construction {a94bb6ae-99f2-4012-af9f-04788ae3e19f} to conductance of 0.183 adj roof insulation, !- Name\n   ** Warning ** IP: IDF line~1570 Alpha Argument length exceeds maximum, will be truncated=  Customized opaque construction {a94bb6ae-99f2-4012-af9f-04788ae3e19f} to conductance of 0.183 adj roof insulatio\n   **   ~~~   ** Will be processed as Alpha=CUSTOMIZED OPAQUE CONSTRUCTION {A94BB6AE-99F2-4012-AF9F-04788AE3E19F} TO CONDUCTANCE OF 0.183 ADJ ROOF INSULATION\n   ************* Beginning Zone Sizing Calculations\n   ** Warning ** ProcessScheduleInput: Schedule:Day:Interval=\"ECONOMIZER MAX OA FRACTION 100 PCT DEFAULT\", Blank Schedule Type Limits Name input -- will not be validated.\n   ** Warning ** ProcessScheduleInput: Schedule:Day:Interval=\"SCHEDULE DAY 1\", Blank Schedule Type Limits Name input -- will not be validated.\n   ** Warning ** ProcessScheduleInput: Schedule:Day:Interval=\"SCHEDULE DAY 10\", Blank Schedule Type Limits Name input -- will not be validated.\n   ** Warning ** ProcessScheduleInput: Schedule:Day:Interval=\"SCHEDULE DAY 11\", Blank Schedule Type Limits Name input -- will not be validated.\n   ** Warning ** ProcessScheduleInput: Schedule:Day:Interval=\"SCHEDULE DAY 12\", Blank Schedule Type Limits Name input -- will not be validated.\n   ** Warning ** ProcessScheduleInput: Schedule:Day:Interval=\"SCHEDULE DAY 2\", Blank Schedule Type Limits Name input -- will not be validated.\n   ** Warning ** ProcessScheduleInput: Schedule:Day:Interval=\"SCHEDULE DAY 5\", Blank Schedule Type Limits Name input -- will not be validated.\n   ** Warning ** ProcessScheduleInput: Schedule:Day:Interval=\"SCHEDULE DAY 6\", Blank Schedule Type Limits Name input -- will not be validated.\n   ** Warning ** ProcessScheduleInput: Schedule:Day:Interval=\"SCHEDULE DAY 7\", Blank Schedule Type Limits Name input -- will not be validated.\n   ** Warning ** ProcessScheduleInput: Schedule:Day:Interval=\"SCHEDULE DAY 8\", Blank Schedule Type Limits Name input -- will not be validated.\n   ** Warning ** ProcessScheduleInput: Schedule:Day:Interval=\"SCHEDULE DAY 9\", Blank Schedule Type Limits Name input -- will not be validated.\n   ** Warning ** ProcessScheduleInput: Schedule:Year=\"ECONOMIZER MAX OA FRACTION 100 PCT\", Blank Schedule Type Limits Name input -- will not be validated.\n   ** Warning ** ProcessScheduleInput: Schedule:Year=\"SCHEDULE RULESET 3\", Blank Schedule Type Limits Name input -- will not be validated.\n   ** Warning ** ProcessScheduleInput: Schedule:Year=\"SCHEDULE RULESET 4\", Blank Schedule Type Limits Name input -- will not be validated.\n   ** Warning ** ProcessScheduleInput: Schedule:Year=\"SCHEDULE RULESET 5\", Blank Schedule Type Limits Name input -- will not be validated.\n   ** Warning ** ProcessScheduleInput: Schedule:Year=\"SCHEDULE RULESET 6\", Blank Schedule Type Limits Name input -- will not be validated.\n   ** Warning ** ProcessScheduleInput: Schedule:Year=\"SCHEDULE RULESET 7\", Blank Schedule Type Limits Name input -- will not be validated.\n   ** Warning ** ProcessScheduleInput: Schedule:Year=\"SCHEDULE RULESET 8\", Blank Schedule Type Limits Name input -- will not be validated.\n   ** Warning ** ProcessScheduleInput: Schedule:Constant=\"ALWAYS OFF DISCRETE\", Blank Schedule Type Limits Name input -- will not be validated.\n   ** Warning ** ProcessScheduleInput: Schedule:Constant=\"ALWAYS ON CONTINUOUS\", Blank Schedule Type Limits Name input -- will not be validated.\n   ** Warning ** CheckUsedConstructions: There are 26 nominally unused constructions in input.\n   **   ~~~   ** For explicit details on each unused construction, use Output:Diagnostics,DisplayExtraWarnings;\n   ** Warning ** GetInternalHeatGains: Lights Combination of ZoneList and Object Name generate a name too long.\n   **   ~~~   ** Object Name=\"SPACE FUNCTION DINING - FAMILY SPACE LIGHTS 100.0 PERCENT REDUCTION\".\n   **   ~~~   ** ZoneList/Zone Name=\"SP-DINING SYS-3 FLR-1 SCH-B HPLCMT-SOUTH ZN\".\n   **   ~~~   ** Item length=[110] > Maximum Length=[100]. You may need to shorten the names.\n   **   ~~~   ** Shortening the Object Name by [11] characters will assure uniqueness for this ZoneList.\n   **   ~~~   ** name that will be used (may be needed in reporting)=\"SP-DINING SYS-3 FLR-1 SCH-B HPLCMT-SOUTH ZN SPACE FUNCTION DINING - FAMILY SPACE LIGHTS 100.0 PERCENT REDUCTION\".\n   ** Warning ** GetInternalHeatGains: Lights Combination of ZoneList and Object Name generate a name too long.\n   **   ~~~   ** Object Name=\"SPACE FUNCTION FOOD PREPARATION LIGHTS 100.0 PERCENT REDUCTION\".\n   **   ~~~   ** ZoneList/Zone Name=\"SP-KITCHEN SYS-3 FLR-1 SCH-B HPLCMT-NORTH ZN\".\n   **   ~~~   ** Item length=[106] > Maximum Length=[100]. You may need to shorten the names.\n   **   ~~~   ** Shortening the Object Name by [7] characters will assure uniqueness for this ZoneList.\n   **   ~~~   ** name that will be used (may be needed in reporting)=\"SP-KITCHEN SYS-3 FLR-1 SCH-B HPLCMT-NORTH ZN SPACE FUNCTION FOOD PREPARATION LIGHTS 100.0 PERCENT REDUCTION\".\n   ** Warning ** GetInternalHeatGains: ElectricEquipment Combination of ZoneList and Object Name generate a name too long.\n   **   ~~~   ** Object Name=\"SPACE FUNCTION DINING - FAMILY SPACE ELEC EQUIP 10.0 PERCENT REDUCTION\".\n   **   ~~~   ** ZoneList/Zone Name=\"SP-DINING SYS-3 FLR-1 SCH-B HPLCMT-SOUTH ZN\".\n   **   ~~~   ** Item length=[113] > Maximum Length=[100]. You may need to shorten the names.\n   **   ~~~   ** Shortening the Object Name by [14] characters will assure uniqueness for this ZoneList.\n   **   ~~~   ** name that will be used (may be needed in reporting)=\"SP-DINING SYS-3 FLR-1 SCH-B HPLCMT-SOUTH ZN SPACE FUNCTION DINING - FAMILY SPACE ELEC EQUIP 10.0 PERCENT REDUCTION\".\n   ** Warning ** GetInternalHeatGains: ElectricEquipment Combination of ZoneList and Object Name generate a name too long.\n   **   ~~~   ** Object Name=\"SPACE FUNCTION FOOD PREPARATION ELEC EQUIP 10.0 PERCENT REDUCTION\".\n   **   ~~~   ** ZoneList/Zone Name=\"SP-KITCHEN SYS-3 FLR-1 SCH-B HPLCMT-NORTH ZN\".\n   **   ~~~   ** Item length=[109] > Maximum Length=[100]. You may need to shorten the names.\n   **   ~~~   ** Shortening the Object Name by [10] characters will assure uniqueness for this ZoneList.\n   **   ~~~   ** name that will be used (may be needed in reporting)=\"SP-KITCHEN SYS-3 FLR-1 SCH-B HPLCMT-NORTH ZN SPACE FUNCTION FOOD PREPARATION ELEC EQUIP 10.0 PERCENT REDUCTION\".\n   ************* Beginning System Sizing Calculations\n   ************* Beginning Plant Sizing Calculations\n   ** Warning ** GetDXCoils: Coil:Cooling:DX:SingleSpeed=\"COIL COOLING DX SINGLE SPEED 2 113KBTU/HR 9.7EER\", invalid\n   **   ~~~   ** ...Part Load Fraction Correlation Curve Name = DXCOOL-NECB2011-REF-COOLPLFFPLR 1 has out of range value.\n   **   ~~~   ** ...Curve maximum must be <= 1.0, curve max at PLR = 0.99 is 1.015\n   **   ~~~   ** ...Setting curve maximum to 1.0 and simulation continues.\n   ** Warning ** GetDXCoils: Coil:Cooling:DX:SingleSpeed=\"COIL COOLING DX SINGLE SPEED 1 21KBTU/HR 14.0SEER\", invalid\n   **   ~~~   ** ...Part Load Fraction Correlation Curve Name = DXCOOL-NECB2011-REF-COOLPLFFPLR has out of range value.\n   **   ~~~   ** ...Curve maximum must be <= 1.0, curve max at PLR = 0.99 is 1.015\n   **   ~~~   ** ...Setting curve maximum to 1.0 and simulation continues.\n   ** Warning ** The Standard Ratings is calculated for Coil:Cooling:DX:SingleSpeed = COIL COOLING DX SINGLE SPEED 2 113KBTU/HR 9.7EER but not at the AHRI test condition due to curve out of bound.\n   **   ~~~   **  Review the Standard Ratings calculations in the Engineering Reference for this coil type. Also, use Output:Diagnostics, DisplayExtraWarnings for further guidance.\n   ** Warning ** The Standard Ratings is calculated for Coil:Cooling:DX:SingleSpeed = COIL COOLING DX SINGLE SPEED 1 21KBTU/HR 14.0SEER but not at the AHRI test condition due to curve out of bound.\n   **   ~~~   **  Review the Standard Ratings calculations in the Engineering Reference for this coil type. Also, use Output:Diagnostics, DisplayExtraWarnings for further guidance.\n   ** Warning ** Output:Meter: invalid Name=\"DISTRICTCOOLING:FACILITY\" - not found.\n   ** Warning ** Output:Meter: invalid Name=\"DISTRICTHEATING:FACILITY\" - not found.\n   ** Warning ** Output:Meter:MeterFileOnly requested for \"Electricity:Facility\" (TimeStep), already on \"Output:Meter\". Will report to both eplusout.eso and eplusout.mtr\n   ************* Testing Individual Branch Integrity\n   ************* All Branches passed integrity testing\n   ************* Testing Individual Supply Air Path Integrity\n   ************* All Supply Air Paths passed integrity testing\n   ************* Testing Individual Return Air Path Integrity\n   ************* All Return Air Paths passed integrity testing\n   ************* No node connection errors were found.\n   ************* Beginning Simulation\n   ** Warning ** CalcDoe2DXCoil: Coil:Cooling:DX:SingleSpeed \"COIL COOLING DX SINGLE SPEED 1 21KBTU/HR 14.0SEER\" - Air-cooled condenser inlet dry-bulb temperature below 0 C. Outdoor dry-bulb temperature = -8.35\n   **   ~~~   **  ... Occurrence info = RUN PERIOD 1, 01/01 23:15 - 23:19\n   **   ~~~   ** ... Operation at low ambient temperatures may require special performance curves.\n   ** Warning ** CalcDoe2DXCoil: Coil:Cooling:DX:SingleSpeed \"COIL COOLING DX SINGLE SPEED 1 21KBTU/HR 14.0SEER\" - Full load outlet air dry-bulb temperature < 2C. This indicates the possibility of coil frost/freeze. Outlet temperature = 1.26 C.\n   **   ~~~   **  ...Occurrence info = RUN PERIOD 1, 01/01 23:30 - 23:35\n   **   ~~~   ** ... Possible reasons for low outlet air dry-bulb temperatures are: This DX coil\n   **   ~~~   **    1) may have a low inlet air dry-bulb temperature. Inlet air temperature = 15.338 C.\n   **   ~~~   **    2) may have a low air flow rate per watt of cooling capacity. Check inputs.\n   **   ~~~   **    3) is used as part of a HX assisted cooling coil which uses a high sensible effectiveness. Check inputs.\n   ** Warning ** CalcDoe2DXCoil: Coil:Cooling:DX:SingleSpeed \"COIL COOLING DX SINGLE SPEED 2 113KBTU/HR 9.7EER\" - Full load outlet air dry-bulb temperature < 2C. This indicates the possibility of coil frost/freeze. Outlet temperature = 0.29 C.\n   **   ~~~   **  ...Occurrence info = RUN PERIOD 1, 05/08 12:45 - 13:00\n   **   ~~~   ** ... Possible reasons for low outlet air dry-bulb temperatures are: This DX coil\n   **   ~~~   **    1) may have a low inlet air dry-bulb temperature. Inlet air temperature = 19.400 C.\n   **   ~~~   **    2) may have a low air flow rate per watt of cooling capacity. Check inputs.\n   **   ~~~   **    3) is used as part of a HX assisted cooling coil which uses a high sensible effectiveness. Check inputs.\n   ************* Simulation Error Summary *************\n   ************* There are 9 unused schedules in input.\n   ************* There are 9 unused week schedules in input.\n   ************* There are 14 unused day schedules in input.\n   ************* Use Output:Diagnostics,DisplayUnusedSchedules; to see them.\n   *************\n   ************* ===== Recurring Error Summary =====\n   ************* The following recurring error messages occurred.\n   *************\n   *************  ** Warning ** Plant loop falling below lower temperature limit, PlantLoop=\"MAIN SERVICE WATER LOOP\"\n   *************  **   ~~~   **   This error occurred 2 total times;\n   *************  **   ~~~   **   during Warmup 2 times;\n   *************  **   ~~~   **   during Sizing 0 times.\n   *************  **   ~~~   **   Min=3.882874\n   *************\n   *************  ** Warning ** CalcDoe2DXCoil: Coil:Cooling:DX:SingleSpeed=\"COIL COOLING DX SINGLE SPEED 1 21KBTU/HR 14.0SEER\" - Low condenser dry-bulb temperature error continues...\n   *************  **   ~~~   **   This error occurred 770 total times;\n   *************  **   ~~~   **   during Warmup 0 times;\n   *************  **   ~~~   **   during Sizing 0 times.\n   *************  **   ~~~   **   Max=-0.1 [C]  Min=-23.625 [C]\n   *************\n   *************  ** Warning ** CalcDoe2DXCoil: Coil:Cooling:DX:SingleSpeed=\"COIL COOLING DX SINGLE SPEED 1 21KBTU/HR 14.0SEER\" - Full load outlet temperature indicates a possibility of frost/freeze error continues. Outlet air temperature statistics follow:\n   *************  **   ~~~   **   This error occurred 453 total times;\n   *************  **   ~~~   **   during Warmup 0 times;\n   *************  **   ~~~   **   during Sizing 0 times.\n   *************  **   ~~~   **   Max=1.996591  Min=-2.041557\n   *************\n   *************  ** Warning ** CalcDoe2DXCoil: Coil:Cooling:DX:SingleSpeed=\"COIL COOLING DX SINGLE SPEED 2 113KBTU/HR 9.7EER\" - Full load outlet temperature indicates a possibility of frost/freeze error continues. Outlet air temperature statistics follow:\n   *************  **   ~~~   **   This error occurred 106 total times;\n   *************  **   ~~~   **   during Warmup 0 times;\n   *************  **   ~~~   **   during Sizing 0 times.\n   *************  **   ~~~   **   Max=1.986792  Min=-2.388271\n   *************\n   *************\n   ************* ===== Final Error Summary =====\n   ************* The following error categories occurred.  Consider correcting or noting.\n   ************* Nominally Unused Constructions\n   ************* ..The nominally unused constructions warning is provided to alert you to potential conditions that can cause\n   ************* ..extra time during simulation. Each construction is calculated by the algorithm indicated in the HeatBalanceAlgorithm\n   ************* ..object. You may remove the constructions indicated (when you use the DisplayExtraWarnings option).\n   *************\n   ************* EnergyPlus Warmup Error Summary. During Warmup: 0 Warning; 0 Severe Errors.\n   ************* EnergyPlus Sizing Error Summary. During Sizing: 25 Warning; 0 Severe Errors.\n   ************* EnergyPlus Completed Successfully-- 1376 Warning; 0 Severe Errors; Elapsed Time=00hr 00min 13.38sec\n",
   "file_format_version" : "0.0.1",
   "file_paths" : [ "../weather", "../seeds", "../seed" ],
   "hash" : "43525F6F",
   "measure_paths" : [ "../measures" ],
   "name" : "LHS Autogenerated 2805",
   "osa_id" : "1c0c2a2f-ae31-4fcd-ad8d-3d4b9cf64ee8",
   "osd_id" : "a47dc1c4-12a4-49e4-91fe-71e8e48c3a91",
   "run_directory" : "./run",
   "seed_file" : "seed.osm",
   "started_at" : "20170720T125341Z",
   "steps" : [
      {
         "arguments" : {
            "__SKIP__" : false,
            "building_type" : "FullServiceRestaurant",
            "climate_zone" : "NECB HDD Method",
            "epw_file" : "CAN_ON_Ottawa.716280_CWEC.epw",
            "template" : "NECB 2011"
         },
         "measure_dir_name" : "create_prototype_building",
         "name" : "create_prototype_building",
         "result" : {
            "completed_at" : "20170720T125423Z",
            "measure_class_name" : "CreatePrototypeBuilding",
            "measure_display_name" : "Create Prototype Building",
            "measure_name" : "create_prototype_building",
            "measure_taxonomy" : "Whole Building.Space Types",
            "measure_type" : "ModelMeasure",
            "measure_uid" : "ae90fsd7-a651-467a-bc8d-29d310b0f937",
            "measure_version_id" : "c6ec5c18-5595-459f-a082-09a19c8c869c",
            "measure_version_modified" : "20170519T182315Z",
            "measure_xml_checksum" : "057E8D9D",
            "started_at" : "20170720T125343Z",
            "stderr" : "",
            "stdout" : "[OpenStudio.Measure] <0> OSArgumentVector is deprecated, use OpenStudio::Measure::OSArgumentVector instead.\n[openstudio.EpwFile] <0> Successive data points (1966-Jan-31 to 1980-Feb-01, ending on line 753) are greater than 1 day apart in EPW file '/usr/local/bundle/bundler/gems/openstudio-standards-4a5f4eb42ab9/openstudio-standards/data/weather/CAN_ON_Ottawa.716280_CWEC.epw'. Data will be treated as typical (TMY)\n[openstudio.setFileExtension] <0> Path p, '/usr/local/bundle/bundler/gems/openstudio-standards-4a5f4eb42ab9/openstudio-standards/data/weather/CAN_ON_Ottawa.716280_CWEC.ddy', has an unexpected file extension. Was expecting 'idf'.\n[openstudio.model.YearDescription] <1> 'UseWeatherFile' is not yet a supported option for YearDescription\n[openstudio.model.YearDescription] <1> 'UseWeatherFile' is not yet a supported option for YearDescription\n[openstudio.setFileExtension] <0> Path p, '/usr/local/bundle/bundler/gems/openstudio-standards-4a5f4eb42ab9/openstudio-standards/data/weather/CAN_ON_Ottawa.716280_CWEC.ddy', has an unexpected file extension. Was expecting 'idf'.\n[openstudio.model.YearDescription] <1> 'UseWeatherFile' is not yet a supported option for YearDescription\n[openstudio.model.YearDescription] <1> 'UseWeatherFile' is not yet a supported option for YearDescription\n[openstudio.EpwFile] <0> Successive data points (1966-Jan-31 to 1980-Feb-01, ending on line 753) are greater than 1 day apart in EPW file '/usr/local/bundle/bundler/gems/openstudio-standards-4a5f4eb42ab9/openstudio-standards/data/weather/CAN_ON_Ottawa.716280_CWEC.epw'. Data will be treated as typical (TMY)\n[openstudio.setFileExtension] <0> Path p, '/usr/local/bundle/bundler/gems/openstudio-standards-4a5f4eb42ab9/openstudio-standards/data/weather/CAN_ON_Ottawa.716280_CWEC.ddy', has an unexpected file extension. Was expecting 'idf'.\n[openstudio.model.YearDescription] <1> 'UseWeatherFile' is not yet a supported option for YearDescription\n[openstudio.model.YearDescription] <1> 'UseWeatherFile' is not yet a supported option for YearDescription\n[openstudio.weather.Model] <0> Could not find ground temperatures; will use generic temperatures, which will skew results.\n[openstudio.EpwFile] <0> Successive data points (1966-Jan-31 to 1980-Feb-01, ending on line 753) are greater than 1 day apart in EPW file '/usr/local/bundle/bundler/gems/openstudio-standards-4a5f4eb42ab9/openstudio-standards/data/weather/CAN_ON_Ottawa.716280_CWEC.epw'. Data will be treated as typical (TMY)\n[openstudio.setFileExtension] <0> Path p, '/usr/local/bundle/bundler/gems/openstudio-standards-4a5f4eb42ab9/openstudio-standards/data/weather/CAN_ON_Ottawa.716280_CWEC.ddy', has an unexpected file extension. Was expecting 'idf'.\n[openstudio.model.YearDescription] <1> 'UseWeatherFile' is not yet a supported option for YearDescription\n[openstudio.model.YearDescription] <1> 'UseWeatherFile' is not yet a supported option for YearDescription\n[openstudio.setFileExtension] <0> Path p, '/usr/local/bundle/bundler/gems/openstudio-standards-4a5f4eb42ab9/openstudio-standards/data/weather/CAN_ON_Ottawa.716280_CWEC.ddy', has an unexpected file extension. Was expecting 'idf'.\n[openstudio.model.YearDescription] <1> 'UseWeatherFile' is not yet a supported option for YearDescription\n[openstudio.model.YearDescription] <1> 'UseWeatherFile' is not yet a supported option for YearDescription\n[openstudio.EpwFile] <0> Successive data points (1966-Jan-31 to 1980-Feb-01, ending on line 753) are greater than 1 day apart in EPW file '/usr/local/bundle/bundler/gems/openstudio-standards-4a5f4eb42ab9/openstudio-standards/data/weather/CAN_ON_Ottawa.716280_CWEC.epw'. Data will be treated as typical (TMY)\n[openstudio.setFileExtension] <0> Path p, '/usr/local/bundle/bundler/gems/openstudio-standards-4a5f4eb42ab9/openstudio-standards/data/weather/CAN_ON_Ottawa.716280_CWEC.ddy', has an unexpected file extension. Was expecting 'idf'.\n[openstudio.model.YearDescription] <1> 'UseWeatherFile' is not yet a supported option for YearDescription\n[openstudio.model.YearDescription] <1> 'UseWeatherFile' is not yet a supported option for YearDescription\n[openstudio.setFileExtension] <0> Path p, '/usr/local/bundle/bundler/gems/openstudio-standards-4a5f4eb42ab9/openstudio-standards/data/weather/CAN_ON_Ottawa.716280_CWEC.ddy', has an unexpected file extension. Was expecting 'idf'.\n[openstudio.model.YearDescription] <1> 'UseWeatherFile' is not yet a supported option for YearDescription\n[openstudio.model.YearDescription] <1> 'UseWeatherFile' is not yet a supported option for YearDescription\n[utilities.idf.WorkspaceObject] <0> Object of type 'Schedule:Constant' and named 'Always Off Discrete', points to an object named OnOff 1 from field 1, but that object cannot be located.\n[utilities.idf.WorkspaceObject] <0> Object of type 'Schedule:Constant' and named 'Always On Continuous', points to an object named Fractional 1 from field 1, but that object cannot be located.\n[utilities.idf.WorkspaceObject] <0> Object of type 'Schedule:Constant' and named 'Always Off Discrete', points to an object named OnOff 1 from field 1, but that object cannot be located.\n[utilities.idf.WorkspaceObject] <0> Object of type 'Schedule:Constant' and named 'Always On Continuous', points to an object named Fractional 1 from field 1, but that object cannot be located.\n[openstudio.standards.Fan] <0> For Fan Constant Volume 1, there is no greater nominal HP.  Use the efficiency of the largest motor category.\n[openstudio.standards.Fan] <0> For Fan Constant Volume 2, there is no greater nominal HP.  Use the efficiency of the largest motor category.\n[openstudio.EpwFile] <0> Successive data points (1966-Jan-31 to 1980-Feb-01, ending on line 753) are greater than 1 day apart in EPW file '/usr/local/bundle/bundler/gems/openstudio-standards-4a5f4eb42ab9/openstudio-standards/data/weather/CAN_ON_Ottawa.716280_CWEC.epw'. Data will be treated as typical (TMY)\n[openstudio.setFileExtension] <0> Path p, '/usr/local/bundle/bundler/gems/openstudio-standards-4a5f4eb42ab9/openstudio-standards/data/weather/CAN_ON_Ottawa.716280_CWEC.ddy', has an unexpected file extension. Was expecting 'idf'.\n[openstudio.model.YearDescription] <1> 'UseWeatherFile' is not yet a supported option for YearDescription\n[openstudio.model.YearDescription] <1> 'UseWeatherFile' is not yet a supported option for YearDescription\n[openstudio.setFileExtension] <0> Path p, '/usr/local/bundle/bundler/gems/openstudio-standards-4a5f4eb42ab9/openstudio-standards/data/weather/CAN_ON_Ottawa.716280_CWEC.ddy', has an unexpected file extension. Was expecting 'idf'.\n[openstudio.model.YearDescription] <1> 'UseWeatherFile' is not yet a supported option for YearDescription\n[openstudio.model.YearDescription] <1> 'UseWeatherFile' is not yet a supported option for YearDescription\n[openstudio.EpwFile] <0> Successive data points (1966-Jan-31 to 1980-Feb-01, ending on line 753) are greater than 1 day apart in EPW file '/usr/local/bundle/bundler/gems/openstudio-standards-4a5f4eb42ab9/openstudio-standards/data/weather/CAN_ON_Ottawa.716280_CWEC.epw'. Data will be treated as typical (TMY)\n[openstudio.setFileExtension] <0> Path p, '/usr/local/bundle/bundler/gems/openstudio-standards-4a5f4eb42ab9/openstudio-standards/data/weather/CAN_ON_Ottawa.716280_CWEC.ddy', has an unexpected file extension. Was expecting 'idf'.\n[openstudio.model.YearDescription] <1> 'UseWeatherFile' is not yet a supported option for YearDescription\n[openstudio.model.YearDescription] <1> 'UseWeatherFile' is not yet a supported option for YearDescription\n[openstudio.setFileExtension] <0> Path p, '/usr/local/bundle/bundler/gems/openstudio-standards-4a5f4eb42ab9/openstudio-standards/data/weather/CAN_ON_Ottawa.716280_CWEC.ddy', has an unexpected file extension. Was expecting 'idf'.\n[openstudio.model.YearDescription] <1> 'UseWeatherFile' is not yet a supported option for YearDescription\n[openstudio.model.YearDescription] <1> 'UseWeatherFile' is not yet a supported option for YearDescription\n[openstudio.standards.Fan] <0> For Fan Constant Volume 1, there is no greater nominal HP.  Use the efficiency of the largest motor category.\n[openstudio.standards.Fan] <0> For Fan Constant Volume 2, there is no greater nominal HP.  Use the efficiency of the largest motor category.\n",
            "step_errors" : [],
            "step_files" : [],
            "step_info" : [
               "Started adding geometry",
               "Finished adding geometry",
               "Started adding weather file for climate zone: NECB HDD Method.",
               "Template =",
               "Setting attic to Space Function.- undefined -",
               "Setting Dining to Space Function.Dining - family space",
               "Setting Kitchen to Space Function.Food preparation",
               "Started applying space types (loads)",
               "Space Function - undefined - had no ventilation specification, one has been created.",
               "Space Function - undefined - had no infiltration objects, one has been created.",
               "Space Function - undefined - set infiltration to 0.0 per ft^2 exterior surface area.",
               "Space Function - undefined - set infiltration schedule to Always On.",
               "Space Function Dining - family space had no people, one has been created.",
               "Space Function Dining - family space set occupancy to 9.29 people/1000 ft^2.",
               "Space Function Dining - family space had no lights, one has been created.",
               "Space Function Dining - family space set LPD to 0.891861761 W/ft^2.",
               "Space Function Dining - family space had no electric equipment, one has been created.",
               "Space Function Dining - family space set electric EPD to 0.092902267 W/ft^2.",
               "Space Function Dining - family space had no ventilation specification, one has been created.",
               "Space Function Dining - family space set ventilation per area to 0.705 cfm/ft^2.",
               "Space Function Dining - family space had no infiltration objects, one has been created.",
               "Space Function Dining - family space set infiltration to 0.0 per ft^2 exterior surface area.",
               "Space Function Dining - family space set occupancy schedule to NECB-B-Occupancy.",
               "Space Function Dining - family space set occupant activity schedule to NECB-Activity.",
               "Space Function Dining - family space set lighting schedule to NECB-B-Lighting.",
               "Space Function Dining - family space set electric equipment schedule to NECB-B-Electric-Equipment.",
               "Space Function Dining - family space set infiltration schedule to Always On.",
               "Space Function Dining - family space set heating setpoint schedule to NECB-B-Thermostat Setpoint-Heating.",
               "Space Function Dining - family space set cooling setpoint schedule to NECB-B-Thermostat Setpoint-Cooling.",
               "Space Function Food preparation had no people, one has been created.",
               "Space Function Food preparation set occupancy to 4.65 people/1000 ft^2.",
               "Space Function Food preparation had no lights, one has been created.",
               "Space Function Food preparation set LPD to 0.994054255 W/ft^2.",
               "Space Function Food preparation had no electric equipment, one has been created.",
               "Space Function Food preparation set electric EPD to 0.929022668 W/ft^2.",
               "Space Function Food preparation had no ventilation specification, one has been created.",
               "Space Function Food preparation set ventilation per area to 0.27 cfm/ft^2.",
               "Space Function Food preparation had no infiltration objects, one has been created.",
               "Space Function Food preparation set infiltration to 0.0 per ft^2 exterior surface area.",
               "Space Function Food preparation set occupancy schedule to NECB-B-Occupancy.",
               "Space Function Food preparation set occupant activity schedule to NECB-Activity.",
               "Space Function Food preparation set lighting schedule to NECB-B-Lighting.",
               "Space Function Food preparation set electric equipment schedule to NECB-B-Electric-Equipment.",
               "Space Function Food preparation set infiltration schedule to Always On.",
               "Space Function Food preparation set heating setpoint schedule to NECB-B-Thermostat Setpoint-Heating.",
               "Space Function Food preparation set cooling setpoint schedule to NECB-B-Thermostat Setpoint-Cooling.",
               "Finished applying space types (loads)",
               "Started applying constructions",
               "Adding construction set: NECB 2011-NECB HDD Method-FullServiceRestaurant--is_residentialNo",
               "Adding construction Typical Insulated Exterior Mass Floor R-15.63.",
               "Adding construction Typical Insulated Exterior Mass Wall R-12.5.",
               "Adding construction Typical Insulated Metal Building Roof R-20.41.",
               "Adding construction Typical Interior Floor.",
               "Adding construction Typical Interior Wall.",
               "Adding construction Typical Interior Ceiling.",
               "Adding construction Typical Insulated Carpeted 6in Slab Floor.",
               "Adding construction U 0.55 SHGC 0.31 Dbl Ref-D Tint 6mm/6mm Air.",
               "Adding construction Typical Insulated Metal Door R-1.43.",
               "Adding construction U 0.35 SHGC 0.35 Dbl LoE (e2-.1) Tint 6mm/13mm Air.",
               "Adding construction Typical Overhead Door R-2.0.",
               "Adding construction U 0.48 SHGC 0.40 Dbl Ref-D Clr 6mm/13mm.",
               "Adding construction Typical Interior Window.",
               "Adding construction Typical Interior Door.",
               "Adding construction Typical Interior Partition.",
               "Finished applying constructions",
               "WWR NonRes = 0%; window = 0 ft2, wall = 0 ft2.",
               "WWR Res = 0%; window = 0 ft2, wall = 0 ft2.",
               "WWR Semiheated = 0%; window = 0 ft2, wall = 0 ft2.",
               "The skylight to roof ratios (SRRs) are: NonRes: 0%, Res: 0%.",
               "Started creating thermal zones",
               "Finished creating thermal zones",
               "Running simulation /mnt/openstudio/analysis_1c0c2a2f-ae31-4fcd-ad8d-3d4b9cf64ee8/data_point_a47dc1c4-12a4-49e4-91fe-71e8e48c3a91/run/000_create_prototype_building/output/FullServiceRestaurant-NECB 2011-NECB HDD Method-CAN_ON_Ottawa.716280_CWEC.epw/SR0.",
               "Finished run.",
               "Started Adding HVAC",
               "Finished adding HVAC",
               "Started Adding Service Water Heating",
               "Adding service water loop.",
               "Adding water heater.",
               "Template =",
               "Finished adding Service Water Heating",
               "Set sizing factors to 1.3 for heating and 1.3 for cooling.",
               "Running simulation /mnt/openstudio/analysis_1c0c2a2f-ae31-4fcd-ad8d-3d4b9cf64ee8/data_point_a47dc1c4-12a4-49e4-91fe-71e8e48c3a91/run/000_create_prototype_building/output/FullServiceRestaurant-NECB 2011-NECB HDD Method-CAN_ON_Ottawa.716280_CWEC.epw/SR1.",
               "Finished run.",
               "Started applying multizone vav OA sizing.",
               "Finished applying multizone vav OA sizing.",
               "Started applying prototype HVAC assumptions.",
               "For Fan Constant Volume 1: allowed_hp = 1.01HP; motor eff = 61.5%; total fan eff = 40% based on 598 cfm.",
               "For Fan Constant Volume 2: allowed_hp = 1.93HP; motor eff = 61.5%; total fan eff = 40% based on 2821 cfm.",
               "Sp-Dining Sys-3 Flr-1 Sch-B HPlcmt-south ZN NECB System 3 PSZ requires an economizer because the total cooling capacity of 112810 Btu/hr exceeds the minimum capacity of 68243 Btu/hr.",
               "Sp-Kitchen Sys-3 Flr-1 Sch-B HPlcmt-north ZN NECB System 3 PSZ does not require an economizer because the total cooling capacity of 20622 Btu/hr is less than the minimum capacity of 68243 Btu/hr.",
               "Finished applying prototype HVAC assumptions.",
               "Started applying HVAC efficiency standards.",
               "For Sp-Dining Sys-3 Flr-1 Sch-B HPlcmt-south ZN NECB System 3 PSZ, ERV not required based on 0% OA flow, design supply air flow of 2821cfm, and climate zone NECB HDD Method.",
               "For Sp-Dining Sys-3 Flr-1 Sch-B HPlcmt-south ZN NECB System 3 PSZ, ERV not required based on exhaust heat content.",
               "For NECB 2011 NECB HDD Method:  Sp-Dining Sys-3 Flr-1 Sch-B HPlcmt-south ZN NECB System 3 PSZ: DCV is not required for any system.",
               "For Sp-Dining Sys-3 Flr-1 Sch-B HPlcmt-south ZN NECB System 3 PSZ: Annual occupied hours = 5421 hr/yr, assuming a 0.15 occupancy threshold.  This schedule will be used as the HVAC operation schedule.",
               "For Sp-Dining Sys-3 Flr-1 Sch-B HPlcmt-south ZN NECB System 3 PSZ: Because the system has an economizer, it requires a motorized OA damper.",
               "For Sp-Dining Sys-3 Flr-1 Sch-B HPlcmt-south ZN NECB System 3 PSZ: Setting motorized OA damper schedule to Sp-Dining Sys-3 Flr-1 Sch-B HPlcmt-south ZN NECB System 3 PSZ Occ Sch.",
               "For Sp-Kitchen Sys-3 Flr-1 Sch-B HPlcmt-north ZN NECB System 3 PSZ, ERV not required based on 0% OA flow, design supply air flow of 598cfm, and climate zone NECB HDD Method.",
               "For Sp-Kitchen Sys-3 Flr-1 Sch-B HPlcmt-north ZN NECB System 3 PSZ, ERV not required based on exhaust heat content.",
               "For NECB 2011 NECB HDD Method:  Sp-Kitchen Sys-3 Flr-1 Sch-B HPlcmt-north ZN NECB System 3 PSZ: DCV is not required for any system.",
               "For Sp-Kitchen Sys-3 Flr-1 Sch-B HPlcmt-north ZN NECB System 3 PSZ: Unoccupied fan shutoff not required because system fan HP of 0.61 HP is less than the minimum threshold of 0.75 HP.",
               "For Sp-Kitchen Sys-3 Flr-1 Sch-B HPlcmt-north ZN NECB System 3 PSZ: Setting motorized OA damper schedule to Always On Discrete.",
               "For Fan Constant Volume 1: motor nameplate = 0.3723806517085835HP, motor eff = 61.5%.",
               "For Fan Constant Volume 2: motor nameplate = 1.7572329710660817HP, motor eff = 61.5%.",
               "For Service Water Loop Pump: brake hp = 0.0HP, motor nameplate = 0.1HP, motor eff = 70.0%.",
               "For Pump Variable Speed 1: brake hp = 0.09HP, motor nameplate = 1.0HP, motor eff = 85.5%.",
               "For NECB 2011: Coil Cooling DX Single Speed 1: AirCooled All Other Single Package Capacity = 21kBtu/hr; SEER = 14.0",
               "For NECB 2011: Coil Cooling DX Single Speed 2: AirCooled All Other Single Package Capacity = 113kBtu/hr; EER = 9.7",
               "For NECB 2011: Primary Boiler: Gas Hot Water Capacity = 65kBtu/hr; AFUE = 0.85",
               "For NECB 2011: Secondary Boiler: Gas Hot Water Capacity = 0kBtu/hr; AFUE = 0.85",
               "For NECB 2011: 200.0gal NaturalGas Water Heater - 200kBtu/hr 0.807 Therm Eff; thermal efficiency = 0.807, skin-loss UA = 21Btu/hr",
               "Finished applying HVAC efficiency standards.",
               "Started adding daylighting controls.",
               "For attic, daylighting control not applicable because no exterior fenestration is present.",
               "For Kitchen, daylighting control not applicable because no exterior fenestration is present.",
               "Finished adding daylighting controls.",
               "Total Time = 40sec."
            ],
            "step_result" : "Success",
            "step_values" : [
               {
                  "name" : "building_type",
                  "value" : "FullServiceRestaurant"
               },
               {
                  "name" : "template",
                  "value" : "NECB 2011"
               },
               {
                  "name" : "climate_zone",
                  "value" : "NECB HDD Method"
               },
               {
                  "name" : "epw_file",
                  "value" : "CAN_ON_Ottawa.716280_CWEC.epw"
               }
            ],
            "step_warnings" : [
               "[openstudio.EpwFile] Successive data points (1966-Jan-31 to 1980-Feb-01, ending on line 753) are greater than 1 day apart in EPW file '/usr/local/bundle/bundler/gems/openstudio-standards-4a5f4eb42ab9/openstudio-standards/data/weather/CAN_ON_Ottawa.716280_CWEC.epw'. Data will be treated as typical (TMY)",
               "[openstudio.EpwFile] Successive data points (1966-Jan-31 to 1980-Feb-01, ending on line 753) are greater than 1 day apart in EPW file '/usr/local/bundle/bundler/gems/openstudio-standards-4a5f4eb42ab9/openstudio-standards/data/weather/CAN_ON_Ottawa.716280_CWEC.epw'. Data will be treated as typical (TMY)",
               "[openstudio.weather.Model] Could not find ground temperatures; will use generic temperatures, which will skew results.",
               "[openstudio.EpwFile] Successive data points (1966-Jan-31 to 1980-Feb-01, ending on line 753) are greater than 1 day apart in EPW file '/usr/local/bundle/bundler/gems/openstudio-standards-4a5f4eb42ab9/openstudio-standards/data/weather/CAN_ON_Ottawa.716280_CWEC.epw'. Data will be treated as typical (TMY)",
               "[openstudio.EpwFile] Successive data points (1966-Jan-31 to 1980-Feb-01, ending on line 753) are greater than 1 day apart in EPW file '/usr/local/bundle/bundler/gems/openstudio-standards-4a5f4eb42ab9/openstudio-standards/data/weather/CAN_ON_Ottawa.716280_CWEC.epw'. Data will be treated as typical (TMY)",
               "[openstudio.standards.Fan] For Fan Constant Volume 1, there is no greater nominal HP.  Use the efficiency of the largest motor category.",
               "[openstudio.standards.Fan] For Fan Constant Volume 2, there is no greater nominal HP.  Use the efficiency of the largest motor category.",
               "[openstudio.EpwFile] Successive data points (1966-Jan-31 to 1980-Feb-01, ending on line 753) are greater than 1 day apart in EPW file '/usr/local/bundle/bundler/gems/openstudio-standards-4a5f4eb42ab9/openstudio-standards/data/weather/CAN_ON_Ottawa.716280_CWEC.epw'. Data will be treated as typical (TMY)",
               "[openstudio.EpwFile] Successive data points (1966-Jan-31 to 1980-Feb-01, ending on line 753) are greater than 1 day apart in EPW file '/usr/local/bundle/bundler/gems/openstudio-standards-4a5f4eb42ab9/openstudio-standards/data/weather/CAN_ON_Ottawa.716280_CWEC.epw'. Data will be treated as typical (TMY)",
               "[openstudio.standards.Fan] For Fan Constant Volume 1, there is no greater nominal HP.  Use the efficiency of the largest motor category.",
               "[openstudio.standards.Fan] For Fan Constant Volume 2, there is no greater nominal HP.  Use the efficiency of the largest motor category."
            ]
         }
      },
      {
         "arguments" : {
            "__SKIP__" : false,
            "r_value" : 200
         },
         "measure_dir_name" : "IncreaseInsulationRValueForExteriorWallsByPercentage",
         "name" : "ecm_increaseinsulationrvalueforexteriorwallsbypercentage",
         "result" : {
            "completed_at" : "20170720T125424Z",
            "measure_class_name" : "IncreaseInsulationRValueForExteriorWallsByPercentage",
            "measure_display_name" : "Increase R-value of Insulation for Exterior Walls By a Specified Percentage",
            "measure_name" : "increase_insulation_r_value_for_exterior_walls_by_percentage",
            "measure_taxonomy" : "Envelope.Opaque",
            "measure_type" : "ModelMeasure",
            "measure_uid" : "7508c563-22bd-49f4-b646-aac69b02a82d",
            "measure_version_id" : "cc73f0ed-8947-4ab0-b5b4-27f2472f6965",
            "measure_version_modified" : "20170519T173219Z",
            "measure_xml_checksum" : "EB1A0C08",
            "started_at" : "20170720T125423Z",
            "stderr" : "",
            "stdout" : "[OpenStudio.Measure] <0> OSArgumentVector is deprecated, use OpenStudio::Measure::OSArgumentVector instead.\n",
            "step_errors" : [],
            "step_files" : [],
            "step_final_condition" : "The existing insulation for exterior walls was increased by 200.0%. This was applied to 2,460 (ft^2) across 1 exterior wall constructions: Customized opaque construction {93f37ce3-6a24-498e-b585-1fd46bd9b337} to conductance of 0.247 adj exterior wall insulation (R-65.9).",
            "step_info" : [
               "For construction'Customized opaque construction {93f37ce3-6a24-498e-b585-1fd46bd9b337} to conductance of 0.247 adj exterior wall insulation', material'Typical Insulation R-10.11 1_R-value 200.0% increase' was altered."
            ],
            "step_initial_condition" : "The building had 1 exterior wall constructions: Customized opaque construction {93f37ce3-6a24-498e-b585-1fd46bd9b337} to conductance of 0.247 (R-23.0).",
            "step_result" : "Success",
            "step_values" : [
               {
                  "name" : "r_value",
                  "value" : 200
               }
            ],
            "step_warnings" : []
         }
      },
      {
         "arguments" : {
            "__SKIP__" : false,
            "r_value" : 200
         },
         "measure_dir_name" : "IncreaseInsulationRValueForRoofsByPercentage",
         "name" : "ecm_increaseinsulationrvalueforroofsbypercentage",
         "result" : {
            "completed_at" : "20170720T125424Z",
            "measure_class_name" : "IncreaseInsulationRValueForRoofsByPercentage",
            "measure_display_name" : "Increase R-value of Insulation for Roofs by a Specified Percentage.",
            "measure_name" : "increase_insulation_r_value_for_roofs_by_percentage",
            "measure_taxonomy" : "Envelope.Opaque",
            "measure_type" : "ModelMeasure",
            "measure_uid" : "807d3ebf-c89b-4b93-b400-110ca060b2bb",
            "measure_version_id" : "c5d4d0ff-7316-418d-ba3f-5f870de01f9d",
            "measure_version_modified" : "20170519T173227Z",
            "measure_xml_checksum" : "EB1A0C08",
            "started_at" : "20170720T125424Z",
            "stderr" : "",
            "stdout" : "[OpenStudio.Measure] <0> OSArgumentVector is deprecated, use OpenStudio::Measure::OSArgumentVector instead.\n",
            "step_errors" : [],
            "step_files" : [],
            "step_final_condition" : "The existing insulation for roofs was increased by 200.0%. This was applied to 6,130 (ft^2) across 1 roof constructions: Customized opaque construction {a94bb6ae-99f2-4012-af9f-04788ae3e19f} to conductance of 0.183 adj roof insulation (R-93.1).",
            "step_info" : [
               "For construction'Customized opaque construction {a94bb6ae-99f2-4012-af9f-04788ae3e19f} to conductance of 0.183 adj roof insulation', material'Typical Insulation R-19.63 1_R-value 200.0% increase' was altered."
            ],
            "step_initial_condition" : "The building had 1 roof constructions: Customized opaque construction {a94bb6ae-99f2-4012-af9f-04788ae3e19f} to conductance of 0.183 (R-31.0).",
            "step_result" : "Success",
            "step_values" : [
               {
                  "name" : "r_value",
                  "value" : 200
               }
            ],
            "step_warnings" : []
         }
      },
      {
         "arguments" : {
            "__SKIP__" : false,
            "elecequip_power_reduction_percent" : 10
         },
         "measure_dir_name" : "ReduceElectricEquipmentLoadsByPercentage",
         "name" : "ecm_reduceelectricequipmentloadsbypercentage",
         "result" : {
            "completed_at" : "20170720T125424Z",
            "measure_class_name" : "ReduceElectricEquipmentLoadsByPercentage",
            "measure_display_name" : "Reduce Electric Equipment Loads by Percentage",
            "measure_name" : "reduce_electric_equipment_loads_by_percentage",
            "measure_taxonomy" : "Equipment.Electric Equipment",
            "measure_type" : "ModelMeasure",
            "measure_uid" : "0902e302-70db-4339-99b0-17f08bc93629",
            "measure_version_id" : "645dc36a-5e28-46c7-b148-9873d9166a3a",
            "measure_version_modified" : "20170719T182841Z",
            "measure_xml_checksum" : "F9A5B8F0",
            "started_at" : "20170720T125424Z",
            "stderr" : "",
            "stdout" : "[OpenStudio.Measure] <0> OSArgumentVector is deprecated, use OpenStudio::Measure::OSArgumentVector instead.\n",
            "step_errors" : [],
            "step_files" : [],
            "step_final_condition" : "The model's final building electric equipment power was  1,589 watts, an electric equipment power density of 0.29 w/ft^2. Initial capital costs associated with the improvements are $0.",
            "step_info" : [],
            "step_initial_condition" : "The model's initial building electric equipment power was  1,766 watts, an electric equipment power density of 0.32 w/ft^2.",
            "step_result" : "Success",
            "step_values" : [
               {
                  "name" : "space_type",
                  "value" : "{57a0612b-80fa-4a4f-8704-b192e6d39f92}"
               },
               {
                  "name" : "elecequip_power_reduction_percent",
                  "value" : 10
               },
               {
                  "name" : "material_and_installation_cost",
                  "value" : 0
               },
               {
                  "name" : "demolition_cost",
                  "value" : 0
               },
               {
                  "name" : "years_until_costs_start",
                  "value" : 0
               },
               {
                  "name" : "demo_cost_initial_const",
                  "value" : false
               },
               {
                  "name" : "expected_life",
                  "value" : 15
               },
               {
                  "name" : "om_cost",
                  "value" : 0
               },
               {
                  "name" : "om_frequency",
                  "value" : 1
               }
            ],
            "step_warnings" : []
         }
      },
      {
         "arguments" : {
            "__SKIP__" : false,
            "lighting_power_reduction_percent" : 100
         },
         "measure_dir_name" : "ReduceLightingLoadsByPercentage",
         "name" : "ecm_reducelightingloadsbypercentage",
         "result" : {
            "completed_at" : "20170720T125424Z",
            "measure_class_name" : "ReduceLightingLoadsByPercentage",
            "measure_display_name" : "Reduce Lighting Loads by Percentage",
            "measure_name" : "reduce_lighting_loads_by_percentage",
            "measure_taxonomy" : "Electric Lighting.Lighting Equipment",
            "measure_type" : "ModelMeasure",
            "measure_uid" : "791f3404-a28b-4a80-ba3f-e15b339e39ea",
            "measure_version_id" : "e9debd38-d4ad-4094-8021-0af35e9dde50",
            "measure_version_modified" : "20170719T182841Z",
            "measure_xml_checksum" : "293730A7",
            "started_at" : "20170720T125424Z",
            "stderr" : "",
            "stdout" : "[OpenStudio.Measure] <0> OSArgumentVector is deprecated, use OpenStudio::Measure::OSArgumentVector instead.\n",
            "step_errors" : [],
            "step_files" : [],
            "step_final_condition" : "The model's final final lighting power was  1,492 watts, a lighting power density of 0.27 w/ft^2. Initial capital costs associated with the improvements are $0.",
            "step_info" : [],
            "step_initial_condition" : "The model's initial building lighting power was  5,060 watts, a lighting power density of 0.92 w/ft^2.",
            "step_result" : "Success",
            "step_values" : [
               {
                  "name" : "space_type",
                  "value" : "{57a0612b-80fa-4a4f-8704-b192e6d39f92}"
               },
               {
                  "name" : "lighting_power_reduction_percent",
                  "value" : 100
               },
               {
                  "name" : "material_and_installation_cost",
                  "value" : 0
               },
               {
                  "name" : "demolition_cost",
                  "value" : 0
               },
               {
                  "name" : "years_until_costs_start",
                  "value" : 0
               },
               {
                  "name" : "demo_cost_initial_const",
                  "value" : false
               },
               {
                  "name" : "expected_life",
                  "value" : 15
               },
               {
                  "name" : "om_cost",
                  "value" : 0
               },
               {
                  "name" : "om_frequency",
                  "value" : 1
               }
            ],
            "step_warnings" : [
               "A Lighting Power Reduction Percentage of 100.0 percent is abnormally high."
            ]
         }
      },
      {
         "arguments" : {
            "__SKIP__" : false,
            "space_infiltration_reduction_percent" : 40
         },
         "measure_dir_name" : "ReduceSpaceInfiltrationByPercentage",
         "name" : "ecm_reducespaceinfiltrationbypercentage",
         "result" : {
            "completed_at" : "20170720T125424Z",
            "measure_class_name" : "ReduceSpaceInfiltrationByPercentage",
            "measure_display_name" : "ReduceSpaceInfiltrationByPercentage",
            "measure_name" : "reduce_space_infiltration_by_percentage",
            "measure_taxonomy" : "Envelope.Infiltration",
            "measure_type" : "ModelMeasure",
            "measure_uid" : "6e9de4b1-aa97-4010-80c8-529e53ffe943",
            "measure_version_id" : "388d52fe-480e-49f3-8b27-c35bab8870bd",
            "measure_version_modified" : "20170719T182841Z",
            "measure_xml_checksum" : "EACB548E",
            "started_at" : "20170720T125424Z",
            "stderr" : "",
            "stdout" : "[OpenStudio.Measure] <0> OSArgumentVector is deprecated, use OpenStudio::Measure::OSArgumentVector instead.\n",
            "step_errors" : [],
            "step_files" : [],
            "step_final_condition" : "3 space infiltration objects in the model were altered affecting 5,502(ft^2) at a total cost of $0.",
            "step_info" : [
               "Cost arguments were not provided, no cost objects were added to the model."
            ],
            "step_initial_condition" : "The initial model contained 3 space infiltration objects.",
            "step_result" : "Success",
            "step_values" : [
               {
                  "name" : "space_type",
                  "value" : "{57a0612b-80fa-4a4f-8704-b192e6d39f92}"
               },
               {
                  "name" : "space_infiltration_reduction_percent",
                  "value" : 40
               },
               {
                  "name" : "constant_coefficient",
                  "value" : 1
               },
               {
                  "name" : "temperature_coefficient",
                  "value" : 0
               },
               {
                  "name" : "wind_speed_coefficient",
                  "value" : 0
               },
               {
                  "name" : "wind_speed_squared_coefficient",
                  "value" : 0
               },
               {
                  "name" : "material_and_installation_cost",
                  "value" : 0
               },
               {
                  "name" : "om_cost",
                  "value" : 0
               },
               {
                  "name" : "om_frequency",
                  "value" : 1
               }
            ],
            "step_warnings" : []
         }
      },
      {
         "arguments" : {
            "__SKIP__" : false,
            "design_spec_outdoor_air_reduction_percent" : 80
         },
         "measure_dir_name" : "ReduceVentilationByPercentage",
         "name" : "ecm_reduceventilationbypercentage",
         "result" : {
            "completed_at" : "20170720T125424Z",
            "measure_class_name" : "ReduceVentilationByPercentage",
            "measure_display_name" : "ReduceVentilationByPercentage",
            "measure_name" : "reduce_ventilation_by_percentage",
            "measure_taxonomy" : "HVAC.Ventilation",
            "measure_type" : "ModelMeasure",
            "measure_uid" : "f0859a47-fddf-4962-9035-2f9fc9d6e283",
            "measure_version_id" : "439affef-b7cc-40f1-b836-981811fdd914",
            "measure_version_modified" : "20170719T182841Z",
            "measure_xml_checksum" : "ECE70A70",
            "started_at" : "20170720T125424Z",
            "stderr" : "",
            "stdout" : "[OpenStudio.Measure] <0> OSArgumentVector is deprecated, use OpenStudio::Measure::OSArgumentVector instead.\n",
            "step_errors" : [],
            "step_files" : [],
            "step_final_condition" : "3 design specification outdoor air objects in the model were altered affecting 5,502(ft^2).",
            "step_info" : [],
            "step_initial_condition" : "The initial model contained 3 design specification outdoor air objects.",
            "step_result" : "Success",
            "step_values" : [
               {
                  "name" : "space_type",
                  "value" : "{57a0612b-80fa-4a4f-8704-b192e6d39f92}"
               },
               {
                  "name" : "design_spec_outdoor_air_reduction_percent",
                  "value" : 80
               }
            ],
            "step_warnings" : []
         }
      },
      {
         "arguments" : {
            "__SKIP__" : false
         },
         "measure_dir_name" : "view_model",
         "name" : "view_model",
         "result" : {
            "completed_at" : "20170720T125425Z",
            "measure_class_name" : "ViewModel",
            "measure_display_name" : "ViewModel",
            "measure_name" : "view_model",
            "measure_taxonomy" : "Reporting.QAQC",
            "measure_type" : "ModelMeasure",
            "measure_uid" : "f4669f10-fda5-489d-8e1c-7ca3c2d40378",
            "measure_version_id" : "f4975c5f-7c25-42a2-927b-02d99b4427ef",
            "measure_version_modified" : "20170526T150340Z",
            "measure_xml_checksum" : "1E1F8B97",
            "started_at" : "20170720T125424Z",
            "stderr" : "",
            "stdout" : "[OpenStudio.Measure] <0> OSArgumentVector is deprecated, use OpenStudio::Measure::OSArgumentVector instead.\n",
            "step_errors" : [],
            "step_files" : [
               "/mnt/openstudio/analysis_1c0c2a2f-ae31-4fcd-ad8d-3d4b9cf64ee8/data_point_a47dc1c4-12a4-49e4-91fe-71e8e48c3a91/run/007_view_model/report.html",
               "/mnt/openstudio/analysis_1c0c2a2f-ae31-4fcd-ad8d-3d4b9cf64ee8/data_point_a47dc1c4-12a4-49e4-91fe-71e8e48c3a91/run/007_view_model/report.json"
            ],
            "step_final_condition" : "Report written to <a href='file:////mnt/openstudio/analysis_1c0c2a2f-ae31-4fcd-ad8d-3d4b9cf64ee8/data_point_a47dc1c4-12a4-49e4-91fe-71e8e48c3a91/run/007_view_model/report.html'>report.html</a>.",
            "step_info" : [ "No changes made to the model." ],
            "step_result" : "NA",
            "step_values" : [
               {
                  "name" : "view_model_html_zip",
[...]
7hGzJWkc83Yk6d2zdiTp3nN2JOnfM3Yk6d/zdiTp4LN2JOnhc3Yk6eIzdiTp4vN2JOnjs3EdXka2Yw9eUrZjD15etmMPXmq2Yw9+auqS3tfVL7SKD6jYocs4NfLj0Cybz/a8dWkk33FUfm5x/JbrJgnr8N54MbtYa/DbHvYYQPxt/5Q7ZORmxTj9nMz1z1yEj4Jo8WrGy/Ov2W6PX+FD75SgQ+Ry6OPc/FpkfKBgmOxzvErd+J5xHMM8XVU0e8Nf3iHZjSjGc1oRjOa0YxmNKMZzWhGM5rRjGY0oxnNaEYzmtGMZjSjGc1oRjOa0YxmND/j5oUVXvEo8lz+qyNeDLKtnuH7Nlmx2/VXe0545PG4eD2o1Vm+ADXzw8QSFXgrX/GJ73vPqPrNoNjKyl/MQt9JvDBIoVpxwmfdM34eRryl9ubWez7hgbt+Qvlv7VGvwwbizStRsdcWfxQVmSuLVS9lrdMJT46DRPRPauJ8Howz0vYW+7NCYknIb4/+XPkumti8c9ZOpl5sxdlVUTMktpWDrLT/jp3xtP0XsK7aEr8oYFzons7C2BOCb9KfVc5muQmZe6ii8FoPaYnlBS4X46FrdzSPXm4XdQ8897gv/K1d9Gk+TiZROJ9xl/3wA/tH8fuNdTp14uL9PTHAtlZbF/e2ph1iOZPJW2HD8nkwSabsJeuzf7PWK99vsYP1PWLfG/N219763PuyVTne7pxJGLH2RXoqvR/ZRWqmcNXCrvjtX+mMo3+BxCbcuND7fPHF+soX7PDwMO+8eoqZanHZL3RPdbmdRdz5Wufgb5rH6O4v+qs4u0Ph1sIZCk/JXkS1TvOlB7h7JF5xjT9nPfmlXlcuL/RsHk/bda9FekkP8utZfyT5/oHKWVpiz7pW4iQKv3I1O/m+dS2FM2fsJQs1U8XOtc8qM7E0VVdlOZGsTyt1hof25CO25XBen3hYl9m6ajrDTZ31WyeLqkr7f6vKKcS2vc1+/+MT+++HPz6ykw8fP/3y28/s/Yeffzli744/HqsJvE1nbX7jiBSNJSGLwyhhwfwy9YMxy17JjpkTj9PkxQsmCorLvhc6K5HZ6bAz9ckl4sk8CtjMiWL+1g+dpO2IKX8rvZQrv51lvyl1ZnWKtmK2OIUq4W+PsETMd3W2s7Vf8iraj7JiDXCAAxzgAAc4wAEOcIADHOA8e5y760IIooi7oAENaEADGtCABjSgAQ1oQAOacpo7KxMJGrHuEHCAAxzgAAc4wAEOcIADHOAApw6O+ipm2RO2fI0ykIIUpCAFKUhBClKQghSkIAUpSEH6PEgrl9fMSPPFM0EKUpCCFKQgBSlIQQpSkIIUpCAF6fMg1VrjOKPOVzAGNahBDWpQgxrUoAY1qEENalCDGtSgfkTqJZYbOdftSrEbK/ESn59MnRm3En6TtF+8C+dRXI2xuHvkG++SB7EXBj6PM4UKie1t9sp1mcMyJXbtJVMWh5ecuYOKI+OrieXMZmI5kZaw3dqqOGC5WU6SRO3WTavDRj3NgxYtsWiJ8kFxshCrrgi8rhOMp2HUul3qRFPjPAyS7jX3JtNEaJyFvquukV+b346PXndfdz+Mx/NZSrN4sVV2dV5ux+PImyU/Sfd5ue16V/c3S4+Ri6VazHMPW2Phukfp2TpewKPTfq/Fsi44bLlePPOdxYEXiLVvumd+OP76Y0vOl4rmp8CSxSw9XvTC9oVz5eS/lh4ptmxBnqsJO1yuuxPw65OrSbv1z7uMHbYjlrFJ/6gcNSuLt3z+s1iR56D1Xdm+VidvOb1pHdhWr9PKCsi3DnrWqNMai4kmPaao69f61lHS6a/pDGvrDNZ0evWFdqiEhlRCIyqhXSqhPSqhfSohu7emtFtfyKYSWvfsnfpCA6IhYu8QjVl7SCU0ouqjddce1BfaoxLaJzq1fo/o8vfXPXuvvlCfSmjds/frC+3oCN2tnaQU2CLuashI45qejDys6enIo5qejjyo6enIY5qejjyk6enII5qejjyg6enI45mmjjScaepIo5mmjjSYaepIY5mmjjSUaepII5mmjjSQaepI45imjjSMaU6H0iimqSMNYpo60himqSMNYZo60gh2R+dOSQql6CVqVmjoSMOXpo48fmkKyQOYppA8gmkKyUOYppA8hmkKyYOYppA8imkKycOYrpA0jukKSQOZrpA0kukKSUOZrpA0lukKSYOZrpA0mukKScOZrpA0nulOkNKApiskjWi6QtKQpiskjWm6QtKgdkdI/ZtMebRb/adx/tEmgYm+bEzRmSi5dUlmo+SuJpmNkhueZDZK7oWS2Si5TUpmo+QOKpmNkpurZDZK7rvS2ZDfkqWzIb9bS2dDfiOXzob8Hi+dDfntXzob8jvDdDbkN43pbMjvJ9PZkN9qpguD8rvQdDbkN6jpbMjvXdPZeIBx/l1qpWqj8gsYeXa1Ou3mn8gQmJBnV2QmSrIrMhsl2RWZjZLsisxGSXZFZqMkuyKzUZJdkdkoya7IbJRkV3Q2HmCYl2RXdDbksy6dDXl2RWdDnl3R2ZBnV3Q25NkVnQ15dkVnQ55d0YVBeXZFZ0OeXdHZkGdXdDbkLw3Q2ZC/T1BmQ+vdWrWX6fKXb4nNyd+5a8RcSQbWiL2SbKwReyWZWSP2SrK0RuyVZGyN2CvJ3hqxV5LJNWKvJKtrxp48w2vGnjzba8aePPNrxp48C2zGnjwjbMaePDtsxp48U2zGnjxrbMaePINsJrzLs8lm7Mkzy2bsybPMZuzJM85m7Mmzz6W9LyrfcxRfXLFDFvDr5eci2Vci7fhq0sm+96j8MGT52VbMk9fhPHDj9rDXYbY97LCB+Ft/qPZxyU2KcftlmuseOQmfhNHi1Y0X55893Z6/wrdhqcCHyOXRx7n4Ckn5QMGxWOf4lTvxPOI5hviQquj3hr/RQzOa0YxmNKMZzWhGM5rRjGY0oxnNaEYzmtGMZjSjGc1oRjOa0YxmNKMZzWhGM5qfcfPCCq94FHku/9URLwbZVs/wfZusLO76qz0nPPJ4XLwe1OosX4Ca+WFiiVq9la/4xPe9Z1T9ZlBsZTUxZqHvJF4YpFCtOOGz7hk/DyPeUntz6z2f8MBdP6H8t/ao12ED8eaVqO1riz+K4s2Vda2XstbphCfHQSL6JzVxPg/GGWl7i/1ZIbEk5LdHf658F01s3jlrJ1MvtuLsqqgZEtvKQVbaf8fOeNr+C1hXbYlflDoudE9nYewJwTfpzypns9yEzD1UUXith7TE8gKXi/HQtTuaRy+3i7oHnnvcF/7WLvo0HyeTKJzPuMt++IH9o/j9xjqdOnHx/p4YYFurrYt7W9MOsZzJ5K2wYfk8mCRT9pL12b9Z65Xvt9jB+h6x7415u2tvfe592aocb3fOJIxY+yI9ld6P7CI1U7hqYVf89q90xtG/QGITblzofb74Yn3lC3Z4eJh3Xj3FTLW47Be6p7rcziLufK1z8DfNY3T3F/1VnN2hcGvhDIWnZC+iWqf5KgXcPRKvuMafs578Uq8rlxd6No+n7brXIr2kB/n1rD+SfP9A5SwtsWddK3EShV+5mp1837qWwpkz9pKFmqli59pnlZlYmqqrspxI1qeVOsNDe/IR23I4r088rMtsXTWd4abO+q2TRVWl/b9V5RRi295mv//xif33wx8f2cmHj59++e1n9v7Dz78csXfHH4/VBN6msza/cUSKxpKQxWGUsGB+mfrBmGWvZMfMicdp8uIFEwXFZd8LnZXI7HTYmfrkEvFkHgVs5kQxf+uHTtJ2xJS/lV7Kld/Ost+UOrM6RVsxW5xClfC3R1hN5rtS3NkyMXmh7UdZ3AY4wAEOcIADHOAABzjAAQ5wnj3O3TUjBFHEXdCABjSgAQ1oQAMa0IAGNKABTTnNneWKBI1YjAg4wAEOcIADHOAABzjAAQ5wgFMHR31Ns+wJW75iGUhBClKQghSkIAUpSEEKUpCCFKQgfR6klatsZqT5GpogBSlIQQpSkIIUpCAFKUhBClKQgvR5kGqtcZxR5ysYgxrUoAY1qEENalCDGtSgBjWoQQ1qUD8i9RLLjZzrdqXYjZV4ic9Pps6MWwm/Sdov3oXzKK7GWNw98o13yYPYCwOfx5lChcT2NnvlusxhmRK79pIpi8NLztxBxZHx1cRyZjOxnEhL2G5tVRyw3CwnSaJ266bVYaOe5kGLlli0RPmgOFmIVVcEXtcJxtMwat0udaKpcR4GSfeae5NpIjTOQt9V18ivzW/HR6+7r7snPLryxpz9xxGf27zjTuIFkxdbZVfq5XY8jrxZ8pN0n5fbrnd1f7P0GLlYqsU897A1Fm58lJ654wU8Ou3bLZZ1x2HL9eKZ7ywOvECsg9M988Px1x9bcr5UND8Flixm6fGiR7YvnCsn/7X0SLFli/NcTdjhcg2egF+fXE3arX/eZeywHbGkTfpH5QhaWcjl85/F6jwHre9K+LU6ecvpTevAtnqdVlZMvnWwO7Ts/ZVt0GmNxRSUKhQV/1rfOkqq/RXV/R1rn0Z10IjqTiOqw0ZUR42o7jaiuteI6n4j/mr3mpFtZnTZ/WZkB83I7jQjO2xGdtSM7G4zsnvNyDYzyvrNjLJ+QzGsmVHWb2aU9Q1G2d2CVDUyhIi7GqKKCYKeqGJ+oCeqmB7oiSpmB3qiismBnqhibqAnqpga6Ikqzll6oqqJgaZqI2NKNS3QVFWcrzRVFacrTVXFnEBTVTEl0FRVzAg0VRUTAk3VRsaWajqgqdpMvGpkbKnmApqqdcfWnYIpNdIAUV9FQ1UxD9BUVUwENFUVMwFNVcVUQFNVMRfQVFVMBjRVFbMBTVXFKUtTVTUf0JVtZnSpZgS6sorTlq6s4rylK6uYFOjKKmYFurKKaYGurGJeoCvbzChTzQx0ZRuKYc2MMtXkQFe27ihT//RaljaU3QXOv9QmMKj66IHMoOpTCTKDqg8syAyqPssgM6j6mIPMoOoTEDKDqg9HyAzuP7RB5UcqdBZV7wPTWVS9RUxnUfXuMZ1F1RvLdBZVn+zQWVR96ENnUfV5EJ1F1UdFdBZVnyLRxf4Hn3OUnz3RWXzwOUf5iRWdRYoUp/KLwTqvweQfGBIYVE1TyQyqpqlkBlWvIZlB1TSVzKBqmkpmUDVNJTOomqaSGVQNGWQGldNUOosPPtcop6l0FlVDBp1F1TSVzqJqmkpnUTVNpbOomqbSWVRNU+ksPvico5ym0ll8+Pzmwecc5TSVziLFnKP1UUedlDX/BoTYuGr62ohx1VS2EeOqaW0jxlVT3EaMq6a7jRhXTX0bMa6aBjdiXDU8NWJcOT1uxvqjznHKaXMz1lXDWTPWVUNbM9ZVU+tmrKum2c1YV025m7Gumn43Y/1R5zrltLwZ64+bzz3qXKecujdjXXeu+6LyFWbxzTQ7ZAG/Xn7kmX3b2Y6vJp3sK83KzzmXH17HPHkdzgM3bg97HWbbww4biL/1h2qfhN6kGLfflrvukZPwSRgtXt14cf7h8m1vKHzdnQp8iFwefZyL74iVDxQci3WOX7kTzyOeY4hPoYurYPq9evZx7bqpEx55PC5wU0vFBZn5YWKJL34rTcb3nXc1aWxlL+PMQt9JvDBIoVpxwmfdM34eRryl5knv+YQH7voJ5b+1R6kXDIQniC+EbfFH8Tl45ZfyS1nrdMKT4yAR/ZOaOJ8H44y0vcX+VPgeXBDy26M/V44NsXnnrJ1MvTj1a3GcmiGxrRxkpf137Iyn7b+AddWW+MUH04Xu6SyMPSH4Jv1Z5WyWm5C5hyoKr/WQllhe4HIxcLt2R/Po5XZR98Bzj/vC39pFn+bjZBKF8xl32Q8/sH8Uv99Yp1MnLuYTMcC2VlsX97amHWI5k8lbYcPyeTBJpuwl67N/s9Yr32+xg/U9Yt8b83bX3vrc+7JVOd7unEkYsfZFeiq9H9lFaqZw1cKu+O1fh8zWv0BiE25c6H2++GJ95en0dniYd149xUy1uOwXuqe63M4i7nytc/A3zWN09xf9VZzdoXBr4QyFp2SB0TrN655w90iE3Phz1pNf6nXl8kLP5vG0XfdapJf0IL+e9UeS7x+onKUl9qxrJU6i8CtXs5PvW9dSOHPGabalZqrYufZZZSaWpuqqLCeS9WmlzvDQnnzEthzO6xNPmqvaumo6w02d9Vsni6pK+3+ryinEtr3Nfv/jE/vvhz8+spMPHz/98tvP7P2Hn385Yu+OPx6rCbxNZ21+44gUjSUhi8M0kQ7ml6kfjFmWIsbMicdp8uIFEwXFZd8LnZXI7HTYmfrkEvFkHgVs5kQxf+uHTtJ2xJS/lV7Kld/Ost+UOrM6RVsxW5xClfC3R6hP9d1X6Vnhqfwr80cplwUc4AAHOMABDnCAAxzgAAc4zx7nbtUPQRRxFzSgAQ1oQAMa0IAGNKABDWhAU05zp06SoBF1j4ADHOAABzjAAQ5wgAMc4AAHOHVw1GuAZU/Y8ppeIAUpSEEKUpCCFKQgBSlIQQpSkIL0eZBWFlPMSPPiiCAFKUhBClKQghSkIAUpSEEKUpCC9HmQalVgzajziqqgBjWoQQ1qUIMa1KAGNahBDWpQgxrUj0i9xHIj57pdKXZjJV7i85OpM+NWwm+S9ot34TyKqzEWd4/8xC9nPHKSecRZ++2W0KgQ2d5mr1yXOSzTYtdeMmVxeMmZO6g4Mr6aWM5sJhYUaQnrra2KA5ab5SRJlC8hM+ppHiQWfOmrHxQnC7HuisDrOsF4Gkat28VONDXOwyDpXnNvMk2Exlnou+oa+dX57fjodfd199OUR5dhnDgJO+HJLPRS4aMw9L1g8mKr7Hq93I7HkTdLfpLu83Lb9a7ub5YeIxdLtZjnHrbGwp2P0vN3vIBHp/1+i2WdcthyvXjmO4sDLxDr4XTP/HD89ceWnC8VzU+BJYtZerzol+0L58rJfy09UmzZIj1XE3a4XIsn4NcnV5N26593GTtsRyxtk/5ROZJWFnT5/NcqUd+V8pOuo2pbw9XVn3ZWVn/KK/+trT1VotpvRHV1nazRjjWQrVSlp7rTiOqwEdVRI6q7jajuNaK6ukbeaFe+GKme6vpCn2QOazczuuxmhtf6mpt0sjvNyA6bkR01I7vbjOxeM7L7zUSFZkZZv6EY1swo6zczyvoGo+xuYaoaGULEXQ1Rxb7VE1XMD/REFdMDPVHF7EBPVDE50BNVzA30RBVTAz1RxcxAT1Q1MdBUbWRMqaYFmqqK85WmquJ0pamqmBNoqiqmBJqqihmBpqpiQqCpqpgPaMaARsaWajagqdrI2FLNBTRV646tO4VTaqQBos6Khqpit2qqKiYCmqqKmYCmqmIqoKmqmAtoqiomA5qqitmApqpiOqCpqpoP6Mo2M7pUMwJdWcVpS1dWcd7SlVVMCnRlFbMCXVnFtEBXVjEv0JVVTAx0o0Izo0w1NdCVbWaUqSYHurJ1R5n6J9iytKHsLnD+xTaBQdW7NmQGVZ9KkBlUfWBBZlD1WQaZQdXHHGQGVZ+AkBlUfThCZnD/oQ2uZUplT2roLKreB6az+OCTjfIzGjqLqjeW6SyqPtmhs6j60IfOourzIDqLqo+K6CyqPkWii/2qD5joLD74nKP8WIrO4oPPOX2KFKfyy8E6r8HkHxoSGFS9imQGVdNUMoOq15DMoGqaSmZQNU0lM6iappIZVE1TyQyqvt5DZlD5zR86iw8+1yinqXQWVUMGnUXVNJXOomqaSmdRNU2ls6iaptJZVE1T6Syqpql0sf/B5xzlNJXO4oPPOcppKp1FijlH6+OOOilr/i0IsXHVq9uIcdVUthHjqmltI8ZVU9xGjKumu40YV019GzGumgY3Ylw1JW7EuHJ63Iz1R53jlNPmZqyrhrNmrKuGtmasq6bWzVhXTbObsa6acjdjXTX9bsa6aireTE7zqHOdcorejPVHneuUU/dmrOvOdV9UvsIsvp1mhyzg18uPPLNvO9vx1aSTfaVZ+Tnn8gPsmCevw3ngxu1hr8Nse9hhA/G3/lDtk9CbFOP2G3PXPXISPgmjxasbL84/X77tDYWvvFOBD5HLo49z8TWx8oGCY7HO8St34nnEcwzxQXRxFUy/W88+rl03dcIjj8cFbmqpuCAzP0ws8cVvpcn4vvOuJo2t7GWcWeg7iRcGKVQrTvise8bPw4i31DzpPZ/wwF0/ofy39ij1goHwBPGFsC3+KD4Kr/xefilrnU54chwkon9SE+fzYJyRtrfYnwpfhQtCfnv058qxITbvnLWTqRenfi2OUzMktpWDrLT/jp3xtP0XsK7aEr/4YLrQPZ2FsScE36Q/q5zNchMy91BF4bUe0hLLC1wuBm7X7mgevdwu6h547nFf+Fu76NN8nEyicD7jLvvhB/aP4vcb63TqxMV8IgbY1mrr4t7WtEMsZzJ5K2xYPg8myZS9ZH32b9Z65fstdrC+R+x7Y97u2lufe1+2KsfbnTMJI9a+SE+l9yO7SM0UrlrYFb/965DZ+hdIbMKNC73PF1+srzyd3g4P886rp5ipFpf9QvdUl9tZxJ2vdQ7+pnmM7v6iv4qzOxRuLZyh8JQsMFqnef0T7h6JkBt/znryS72uXF7o2Tyetutei/SSHuTXs/5I8v0DlbO0xJ51rcRJFH7lanbyfetaCmfOOM221EwVO9c+q8zE0lRdleVEsj6t1Bke2pOP2JbDeX3iSXNVW1dNZ7ips37rZFFVaf9vVTmF2La32e9/fGL//fDHR3by4eOnX377mb3/8PMvR+zd8cdjNYG36azNbxyRorEkZHGYJtLB/DL1gzHLUsSYOfE4TV68YKKguOx7obMSmZ0OO1OfXCKezKOAzZwo5m/90Enajpjyt9JLufLbWfabUmdWp2grZotTqBL+9gh1qr77Kj0rQJV/Zf4oZbOAAxzgAAc4wAEOcIADHOAA59nj3K36IYgi7oIGNKABDWhAAxrQgAY0oAENaMpp7tRJEjSi7hFwgAMc4AAHOMABDnCAAxzgAKcOjnoNsOwJW17TC6QgBSlIQQpSkIIUpCAFKUhBClKQPg/SymKKGWleHBGkIAUpSEEKUpCCFKQgBSlIQQpSkD4PUq0KrBl1XlEV1KAGNahBDWpQgxrUoAY1qEENalCD+hGpl1hu5Fy3K8VurMRLfH4ydWbcSvhN0n7xLpxHcTXG4u6Rn/jljEdOMo84a7/dEhoVItvb7JXrModlWuzaS6YsDi85cwcVR8ZXE8uZzcSCIi1hvbVVccBys5wkifIlZEY9zYPEgi999YPiZCHWXRF4XScYT8OodbvYiabGeRgk3WvuTaaJ0DgLfVddI786vx0fve6+7n6a8ugyjBMnYSc8mYVeKvyOO4kXTF5slV2vl9vxOPJmyU/SfV5uu97V/c3SY+RiqRbz3MPWWLjzUXr+jhfw6LQ/aLGsUw5brhfPfGdx4AViPZzumR+Ov/7YkvOlovkpsGQxS48X/bJ94Vw5+a+lR4otW6TnasIOl2vxBPz65GrSbv3zLmOH7YilbdI/KkfSyoIun/9aJeq7Un6ydVR7Vn9lvae81t/aalMlOn0inQGRzg6RzpBIZ0Sks0uks0eks0+ks7bUppEQlUfbVC5tU/m0TeXUNpVX21RubVP5tU3l2DaVZ/epPLtPNldTeXafyrP7Wp59t5CSUkSLuKshI+0jPRlpD+nJSPtHT0Y67vVkpKNeT0Y65vVkpCNeT0Y63vVk5IFMU4fIj+VhTFOHyJPlQUxTh8iX5SFMU4fIm+UBTFOHyJ/l4UtTh2peJvJneezS1FH35zuFKZTClqhcoaEj7R5NHWn3aOpIu0dTRzrcNXWkw11TRzrcNXWkw11TRzrcNXXk8UtXiMqj5RFMV4jKp+UxTFeIyqvlUUxXiMqv5XFMV4jKs+WRTFeIbK6m8mx5MNMVqvBsLP6Oxd8LIYXDsPj7nQ2Lv6tgYfF3LP5eZ8Pi72LD4u9Y/D3bsPh7+Z5Y/L1aQGxY/P15rJEIHOAABzjAAQ5wgAMc4AAHOM8e54ktnQga0IAGNKABDWhAAxrQgAY0z4fmaa2RCBzgAAc4wAEOcIADHOAABzhPCucRi6Gh+tmTqn52Mp5yd572svgcKuYJGzyPamc7z6Da2c4DVjvrDYnKnRkIDaiEdqiEhlRCIyqhXSqhPSqhfSqh7762N1Ei822bzLltMu+2ydzbJvNvm8zBbTIPt8lc3Cbz8T6Zj/fp5m8yH++T+Xhfz8d1qqCtapmUQauvI+8lk0Jo9XXks4BJKbT6OvIZwKQYWn0d+eg3KodmIETl0SXhzagimoEQlVOXxDajomgGQlR+XRLYjOqiGcyMVJ5dEtWMSqMZCFF5dklIM6mOtqpjVB7NQEjeRUYF0gyE5IPfqESagZB88BsVSTMQkg9+szJpJkpkvl0S2cwqpZkokbl3SXAzK5ZmokTm4SXxzaxemslcSebjJSHOrGSaiRKZj5dEOVRNQ9U0VE27Q4iqaWJD1TRUTUPVtJINVdNQNU3rrFA1bc2+xv6omra6oWra7dbAS1pPrLgAcIADHOAABzjAAQ5wgAMc4Dx7nCdWcwA0oAENaEADGtCABjSgAQ1ong/N36bWAXCAAxzgAAc4wAEOcIADHODUt4eqacWGqmnLqmk7z6Nq2vAZVE0bPljVtFH2TWjdCjdUQgMqoR0qoSGV0IhKaJdKaI9KaJ9KaO3jezMlMt+2yZzbJvNum8y9bTL/tskc3CbzcJvMxW0yH++T+Xifbv4m8/E+mY/39XxcvWraulb9qmkmOvJeql81zURHPgvUr5pmoiOfAepXTTPRkY9+g6ppRkJUHl0S3gyqphkJUTl1SWwzqJpmJETl1yWBzaBqmtHMSOXZJVHNoGqakRCVZ5eEtPpV09Z1DKqmGQnJu8igapqRkHzwG1RNMxKSD36DqmlGQvLBb1I1zUyJzLdLIptJ1TQzJTL3LgluJlXTzJTIPLwkvplUTTObK8l8vCTEmVRNM1Mi8/GSKIeqaaiahqppdwhRNU1sqJqGqmmomlayoWoaqqZpnRWqpq3Z19gfVdNWN1RNu90aeEnriRUXAA5wgAMc4AAHOMABDnCAA5xnj/PEag6ABjSgAQ1oQAMa0IAGNKABzfOh+dvUOgAOcIADHOAABzjAAQ5wgAOc+vZQNa3YUDVtWTVt+Dyqpo2eQdW00YNVTetZfZKiaSY6AyKdHSKdIZHOiEhnl0hnj0hnn0hn7Zt7IyEqj7apXNqm8mmbyqltKq+2qdzapvJrm8qxbSrP7lN5dp9srqby7D6VZ/e1PFu9OtqaVP3iaAYy0h6qXxrNQEY67usXRjOQkY75+mXRDGSk492gKJqJDpEfy8OYQUU0Ex0iV5bHMINyaCY6RN4sD2AGtdBM5kEif5ZHL4NCaCY6RP4sD131q6CtyRgUQTPRkXaPQQk0Ex3pcDcogGaiIx3uBuXPTHSkw92k+JmREJVHyyOYSeUzIyEqp5YHMZOyZ0ZCVH4tj2MmNc+MZkYqz5aHMpOCZ0ZCVJ4tj2aodoZqZ6h2docQ1c7EhmpnqHaGamclG6qdodqZ1lmh2tmafY39Ue1sdUO1s9utgZernlhRAOAABzjAAQ5wgAMc4AAHOMB59jhPrFYAaEADGtCABjSgAQ1oQAMa0Dwfmr9NjQLgAAc4wAEOcIADHOAABzjAqW8P1c6KDdXOltXORs+j2tnuM6h2tvuA1c56Q6JyZwZCAyqhHSqhIZXQiEpol0poj0pon0rou6/tTZTIfNsmc26bzLttMve2yfzbJnNwm8zDbTIXt8l8vE/m4326+ZvMx/tkPt7X83GdKmirWiZl0OrryHvJpBBafR35LGBSCq2+jnwGMCmGVl9HPvqNyqEZCFF5dEl4M6qIZiBE5dQlsc2oKJqBEJVflwQ2o7poBjMjlWeXRDWj0mgGQlSeXRLSTKqjreoYlUczEJJ3kVGBNAMh+eA3KpFmICQf/EZF0gyE5IPfrEyaiRKZb5dENrNKaSZKZO5dEtzMiqWZKJF5eEl8M6uXZjJXkvl4SYgzK5lmokTm4yVRDlXTUDUNVdPuEKJqmthQNQ1V01A1rWRD1TRUTdM6K1RNW7OvsT+qpq1uqJp2uzXwktYTKy4AHOAABzjAAQ5wgAMc4AAHOM8e54nVHAANaEADGtCABjSgAQ1oQAOa50Pzt6l1ABzgAAc4wAEOcIADHOAABzj17aFqWrGhatqyatru86iatvcMqqbtPVjVtFH2TWjdCjdUQgMqoR0qoSGV0IhKaJdKaI9KaJ9KaO3jezMlMt+2yZzbJvNum8y9bTL/tskc3CbzcJvMxW0yH++T+Xifbv4m8/E+mY/39XxcvWraulb9qmkmOvJeql81zURHPgvUr5pmoiOfAepXTTPRkY9+g6ppRkJUHl0S3gyqphkJUTl1SWwzqJpmJETl1yWBzaBqmtHMSOXZJVHNoGqakRCVZ5eEtPpV09Z1DKqmGQnJu8igapqRkHzwG1RNMxKSD36DqmlGQvLBb1I1zUyJzLdLIptJ1TQzJTL3LgluJlXTzJTIPLwkvplUTTObK8l8vCTEmVRNM1Mi8/GSKIeqaaiahqppdwhRNU1sqJqGqmmomlayoWoaqqZpnRWqpq3Z19gfVdNWN1RNu90aeEnriRUXAA5wgAMc4AAHOMABDnCAA5xnj/PEag6ABjSgAQ1oQAMa0IAGNKABzfOh+dvUOgAOcIADHOAABzjAAQ5wgAOc+vZQNa3YUDVtWTVt73lUTdt/BlXT9h+sapq907N6K5u9Q1JDjVB20IzsTjOyw2ZkR83I7jYju9eM7H4zsmuf/lPqNjTO7IYGmt3QSLMbGmp2Q2PNbmiw2Q2NNruh4WY3NN76DY23flNxraHx1m9ovPVNxpt6Fboy5fo16ehUVXu3fr06OlXVmax+LTs6VdVZrH6dOzpV1RnMoAYeoWwzo0s5XTColkco28wAU84VDOrqEco2M8aUEwWDCnyEUaGZUaacJRjU6iOUbWaUKacI9av6laka1PgjlFXtWoP6f4SyqhOYQW1AQlnVCcygbiChrOoEZlJTkFK3oXGmnCmYVB+k1G1oqCknCyZ1Cil1GxptyvmCSUVDyjjR0HhTThlMah9S6jY03pSzBlRJRJVEVEm8Q4gqiWJDlURUSUSVxJINVRJRJVHrrFAlcc2+xv6okri6oUri7dbAS5lPrJgIcIADHOAABzjAAQ5wgAMc4Dx7nCdWYwQ0oAENaEADGtCABjSgAQ1ong/N36a2CXCAAxzgAAc4wAEOcIADHODUt/cIVRI/8csZj5xkHnHWfruFoolPq2gij668MWf/cYTnvQ/DGRMXTLznvNN7+ywKKA56T7+AYsr4YAUUxd/rVmoi0hkQ6ewQ6QyJdEZEOrtEOntEOvtEOusFBkyEqDzapnJpm8qnbSqntqm82qZya5vKr20qx7apPLtP5dl9srmayrP7VJ7d1/JsjcJ+q1IGlfzqy0h7yKBWX30Z6bg3qMZXX0Y65g3q7dWXkY53k4p6BjpEfiwPYyZF8gx0iFxZHsNM6t4Z6BB5szyAmZSyM5gHifxZHr1MqtMZ6BD5szx0GRScW5UxqTBnoCPtHpMacgY60uFuUiXOQEc63E3qwBnoSIe7UaU3EyEqj5ZHMKPibSZCVE4tD2JG9dhMhKj8Wh7HjEqsmcyMVJ4tD2VGVdNMhKg8Wx7N7gj9Hnlh5CULZrMua5/Mgy1RkmrU/d9O0O3Z3ezvb/i4O7BlYa639g+9V692dvb3CUzI/3VLZmLQ/FnsNG9i2LyJUfMmdps3sde8if3mTaxF9qZsPMD4LrkxS2dDfmeLzob8phedDfmdXjob8pvAdDbk94fpbMhvHdPZkN9Vpot/8hvOdDbk96LpbDzAOC+5g01no14o72c2nERmo6f2GHcw6Pf3RgQm5FeDzIQ8rSIzIb8WZCbkaRWZCXlaRWZCnlaRmZCnVWQm5GkVmYmStIrOxgOM75K0is6GfLqlsyFPq+hsyNMqOhvytIrOhjytorMhT6vobMjTKrr4J0+r6Gw8RBx/gHFeklbR2ag3zgfCxtvIk9gQ6xWrpFW2vbs7GBCY6EujB5kJeVpFZkKeVpGZkKdVZCbkaRWZCXlaRWZCnlaRmZCnVWQmStIqOhsPML5L0io6G/Lpls6GfLqlsyFPq+hsyNMqOhvytIrOhjytorMhT6vo4p88raKz8RBx/AHGeUlaRWej3jjfETY+TecyG3tqadV+ug1fE5iQp1VkJuRpFZkJeVpFZkKeVpGZkKdVZCbkaRWZCXlaRWZCnlaRmShJq+hsPMD4Lkmr6GzIp1s6G/Lpls6GPK2isyFPq+hsyNMqOhvytIrOhjytoot/8rSKzsZDxPEHGOclaRWdjXrjfChs/Ie7Mhu7amnVmzdHR7u7BCbkaRWZCXlaRWZCnlaRmZCnVWQm5GkVmQl5WkVmQp5WkZmQp1VkJkrSKjobDzC+S9IqOhvy6ZbOhny6pbMhT6vobMjTKjob8rSKzoY8raKzIU+r6OKfPK2is/EQcfwBxnlJWkVno944H2Wp25zLbIzU0qqjo9GIxIQ8rSIzIU+ryEzI0yoyE/K0isyEPK0iMyFPq8hMyNMqMhPytIrMRElaRWfjAcZ3SVpFZ0M+3dLZkE+3dDbkaRWdDXlaRWdDnlbR2ZCnVXQ25GkVXfyTp1V0Nh4ijj/AOC9Jq+hs1Bvnu8LGr6Hstfj+UC2t2tvr94dDAhPytIrMhDytIjMhT6vITMjTKjIT8rSKzIQ8rSIzIU+ryEzI0yoyEyVpFZ2NBxjfpSXaqGyU1biislFW/orKRlnNNyobZeXgqGyUVYqjslFWRI7KRll9Oar4V1Z6jsrGQ8TxBxjnpbXsqGxUj/MvKhVei5rM7JAF/HpZQDarG9uOryadrAJsZanYZWHnmCevw3ngxu1hr8Nse9hhA/G3/lCt3OxNinFblNp1j5yET8Jo8erGi/OyyLfnr1A9OhX4ELk8+jgXVYqVDxQci3WOX7kTzyOeY4hCy0W/N1yeG81oRjOa0YxmNKMZzWhGM5rRjGY0oxnNaEYzmtGMZjSjGc1oRjOa0YxmNKMZzWhGM5rRjGY0oxnNaEYzmtGMZjSjGc1oRjOa0YxmNKMZzRvVvLDCKx5Fnst/dcSHtbbVM/xeVXwaG69/GnvCI4/Hxee1rc7yA+KZHyaW7wW88hPZ+L7vdKu/rI2tbOn5Weg7iRcGKVQrTvise8bPw4i31L58fs8nPHDXTyj/rT3qddhAfLncEx8yiz9aPj9PBFiF9FLWOp3w5DhIRP+kJs7nwTgjbW+xPyskloT89ujPld9yi807Z+1k6sVWnF0VNUNiWznISvvv2BlP238B66ot8cWn4yl7oXs6C2NPCL5Jf1Y5m+UmZO6hisJrPaQllhe4XIyHrt3RPHq5XdQ98NzjvvC3dtGn+TiZROF8xl32ww/sH8XvN9bp1ImL79/FANtabV3c25p2iOVMJm+FDcvnwSSZspesz/7NWq98v8UO1veIfW/M211763Pvy1bleLtzJmHE2hfpqfR+ZBepmcJVC7vit3+lM47+BRKbcONC7/PFF+srX7DDw8O88+opZqrFZb/QPdXldhZx52udg79pHqO7v+iv4uwOhVsLZyg8JSvkYJ06cexNAu4eiRIR8eesJ7/U68rlhZ7N42m77rVIL+lBfj3rjyTfP1A5S0vsWddKnEThV65mJ9+3rqVw5oy9ZKFmqti59lllJpam6qosJ5L1aaXO8NCefMS2HM7rEw/rMltXTWe4qbN+62RRVWn/b1U5hdi2t9nvf3xi//3wx0d28uHjp19++5m9//DzL0fs3fHHYzWBt+mszW8ckaKxJGRxGCUsmF+mfjBmWUmTmDnxOE1evGCioLjse6GzEpmdDjtTn1winsyjgM2cKOZv/dBJ2o6Y8rfSS7ny21n2m1JnVqdoK2aLU6gS/tZspZfb/DMb7tlgb79w+bkz9xM2i8J0DuMvOuzFP/f2jo6Oj180XHgGOMABDnCAAxzgAAc4wAEOcDYTh8Xzy/SfwMzl4kfmOgtBFHEXNKABDWhAAxrQgAY0oAENaEBTTnOdvZr1Hc2ZP+fAAQ5wgAMc4AAHOMABDnCAA5w6OLfrBtpi3cCTuWzdwIGdPWF79WpnZ38fpCAFKUhBClKQghSkIAUpSEEKUpA+D9J+RuokMtJeRjoY9Pt7I5CCFKQgBSlIQQpSkIIUpCAFKUhB+jxIB4L0beRJSPv7Galt7+4OBiAFKUhBClKQghSkIAUpSEEKUpCC9HmQ7gjST9O5jHQvI91Pt+FrkIIUpCAFKUhBClKQghSkIAUpSEH6PEiHgvQ/3JWR7makb94cHe3ughSkIAUpSEEKUpCCFKQgBSlIQQrS50E6yu5MzLmMdJSRHh2NRiAFKUhBClKQghSkIAUpSEEKUpCC9LmQ7grSX0NZZcH+MCPd2+v3h0OQghSkIAUpSEEKUpCCFKQgBSlIQfpgpEsUN3Ku25ViN1biJT4/mTozbiX8Jmm/eBfOo7gaY3H3yDfeJQ9iLwx8HmcKFRLb2+yV6zKHZUrs2kumLA4vOXMHFUfGVxPLmc144LZbwnZrq+KA5WY5SRK1WzetDhv1NA9apAf11Q+Kk4XPc7yuE4ynYZQe3/L5uQZtoXEeBkn3mnuTaSI0zkLfVdfIr83JrPvGC7xgwk4WcXfA3vpR12Yn42n3NXv3uz++TLpxOE8vwP/8xn47Pnotdkv4JRuw30/+h30Yj8W+L7bKLunL7XgcebPkJ+k+L7dd7+r+ZukxcrFUi3nuYWss/P0o7SLHC3h0OrBbLOu3w5brxTPfWRx4gZ82dc/8cPz1x5acLxXNT4Eli1l6vOi67Qvnysl/LT1SbFdOJFyTHTLXu5z53Ar49cnVpN36513GDtvp9bI/KoeakHWdxEl1P//Z8p0z7rcOWi4/d+Z+wmZReO75vNXJW05vWge21eu0rhx/zlsHo31rf2Xb2++0xmJ+ShXSKefo6Pi49a2jpNpvRHXQiOpOI6rDRlRHjajuNqK614jqfiOqdq8Z2WZGl93M8LKbGV92MwPMbmaE2c0MMbuZMWY3M8jsZkZZv5lR1m8ohjUzyvrNjLK+wShj8fzycm3J7xoZQsRdDVHFvtUTVexZPVHFftUTVZy79EQVZy49UcV5S09UcdbSE1Wcs/REVRMDTdVGxpRqWqCp2sioUk0KNFUbGVeqKYGmaiMjSzUh0FRtZGyppgOaqs3Eq0bGlmouoKlad2xde0FimgaciR3UVRW7VVNVsVs1VRW7VVNVccrSVFWcsjRVFacsTVXFKUtTVXHK0lRVzQd0ZZsZXaoZga5sM+NLNSfQlW1mhKlmBbqyzYwx1bxAV7aZUaaaGejKNhTDmhllqsmBrqzWKPui8sCheI7IDlnAr5fPM7LHGO34atLJHkhUPrlYPoyMefI6nAdu3B72Osy2hx02EH/rD9WeftykGLfPWF33yEn4JIwWr268OH+Yd9sVCk88U4EPkcujj3PxbE35QMGxWOf4lTvxPOI5hng8WFwC02e42XOkdVMnPPJ4XOCmlooLMvPDxBIPtypNxveddzVpbGV+Nwt9J/HCIIVqxQmfdc/4eRjxlponvecTHrjrJ5T/1h6lXjAQniAehtnij+IRaeXT46WsdTrhyXGQiP5JTZzPg3FG2t5ifyo8IxWE/Pboz5VjQ2zeOWsnUy9O/Vocp2ZIbCsHWWn/HTvjafsvYF21JX7xbLDQPZ2FsScE36Q/q5zNchMy91BF4bUe0hLLC1wuBm7X7mgevdwu6h547nFf+Fu76NN8nEyicD7jLvvhB/aP4vcb63TqxMV8IgbY1mrr4t7WtEMsZzJ5K2xYPg8myZS9ZH32b9Z65fstdrC+R+x7Y97u2lufe1+2KsfbnTMJI9a+SE+l9yO7SM0UrlrYFb/965DZ+hdIbMKNC73PF1+srzyd3g4P886rp5ipFpf9QvdUl9tZxJ2vdQ7+pnmM7v6iv4qzOxRuLZyh8JQsMFqn+fs/3M3eAIo/Zz35pV5XLi/0bB5P23WvRXpJD/LrWX8k+f6ByllaYs+6VuIkCr9yNTv5vnUthTNn7CULNVPFzrXPKjOxNFVXZTmRrE8rdYaH9uQjtuVwXp94WJfZumo6w02d9Vsni6pK+3+ryinEtr3Nfv/jE/vvhz8+spMPHz/98tvP7P2Hn385Yu+OPx6rCbxNZ21+44gUjSUhi8M0kQ7ml6kfjFmWIsbMicdp8uIFEwXFZd8LnZXI7HTYmfrkEvFkHgVs5kQxf+uHTtJ2xJS/lV7Kld/Ost+UOrM6RVsxW5xClfC3R3hP87sHsMXLmOKB6qO8Ngoc4AAHOMABDnCAAxzgAAc4zx7n7gsugijiLmhAAxrQgAY0oAENaEADGtCAppzmziuBgka84gcc4AAHOMABDnCAAxzgAAc4wHnE6oif+OWMR04yjzhrv91CfcQnVR/xP47wuHc8+79Xl2ceDxImLpmoe8jdedr/Xbbbe/s8SiD2n0EJxP6DlUDMPjytW4KJSGdApLNDpDMk0hkR6ewS6ewR6ewT6azVFjASovJom8qlbSqftqmc2qbyapvKrW0qv7apHNum8uw+lWf3yeZqKs/uU3l2X8uz1Uv2rUnVL9JnICPtofqF+AxkpOO+frE9AxnpmK9fUM9ARjreDYrmmegQ+bE8jBmUwjPRIXJleQwzKHBnokPkzfIAZlC2zmQeJPJnefQyKEZnokPkz/LQVb/E3JqMQVE5Ex1p9xgUjjPRkQ53g+JwJjrS4W5QAM5ERzrcTYq8GQlRebQ8gpmUbjMSonJqeRAzKchmJETl1/I4ZlJmzWhmpPJseSgzKZ5mJETl2fJohpJoz6IkGprRjGY0oxnNaEYzmtGMZjSjGc1oRjOan1LzwgqveBR5Lv/VETeqbKuHkvgrZ4KS+LcbSuJrbSiJj5L4GhtK4n+/oST+9xtK4mtuKImPkvj3biiJDxzgAAc4wAEOcIADHOAABzjAeQ4FJUEDGtCABjSgAQ1oQAMa0IDm+dD8bQpZAgc4wAEOcIADHOAABzjAAU59e49QEv+Nd8mD2AsDn8cxCuI/rYL4YfSVHZ+fe2OPB+PFbRn8hy2AX+z9Xcvqfy//nv//rXrxl9v/Owvdhfj/aXLp//S//h/kirV0"
               },
               {
                  "name" : "annual_peak_electric_demand",
                  "units" : "kW",
                  "value" : 10.025860000000002
               },
               {
                  "name" : "first_year_capital_cost",
                  "units" : "$",
                  "value" : 0
               },
               {
                  "name" : "annual_utility_cost",
                  "units" : "$",
                  "value" : 6659.5599999999995
               },
               {
                  "name" : "total_lifecycle_cost",
                  "units" : "$",
                  "value" : 115435.21000000001
               }
            ],
            "step_warnings" : []
         }
      }
   ],
   "updated_at" : "20170720T125500Z",
   "weather_file" : "USA_CO_Denver.Intl.AP.725650_TMY3.epw"
}
